download/pglib-opf-master/api/pglib_opf_case588_sdet__api.m
%%%%%%%%%%%%%%%%%%%%%%%%%%%%%%%%%%%%%%%%%%%%%%%%%%%%%%%%%%%%%%%%%%%%%%%%%%%
%%%%                                                                  %%%%%
%%%%    IEEE PES Power Grid Library - Optimal Power Flow - v19.05     %%%%%
%%%%          (https://github.com/power-grid-lib/pglib-opf)           %%%%%
%%%%             Benchmark Group - Active Power Increase              %%%%%
%%%%                         08 - May - 2019                          %%%%%
%%%%                                                                  %%%%%
%%%%%%%%%%%%%%%%%%%%%%%%%%%%%%%%%%%%%%%%%%%%%%%%%%%%%%%%%%%%%%%%%%%%%%%%%%%
function mpc = pglib_opf_case588_sdet__api
mpc.version = '2';
mpc.baseMVA = 100.0;

%% bus data
%	bus_i	type	Pd	Qd	Gs	Bs	area	Vm	Va	baseKV	zone	Vmax	Vmin
mpc.bus = [
	1	 1	 131.79	 28.55	 0.0	 0.0	 1	    1.00000	    0.00000	 345.0	 1	    1.10000	    0.90000;
	2	 1	 0.0	 0.0	 0.0	 -20.0	 1	    1.00000	    0.00000	 345.0	 1	    1.10000	    0.90000;
	3	 2	 0.0	 0.0	 0.0	 62.35	 1	    1.00000	    0.00000	 500.0	 1	    1.10000	    0.90000;
	4	 2	 0.0	 0.0	 0.0	 0.0	 1	    1.00000	    0.00000	 500.0	 1	    1.10000	    0.90000;
	5	 1	 47.66	 85.89	 0.0	 0.0	 1	    1.00000	    0.00000	 500.0	 1	    1.10000	    0.90000;
	6	 1	 0.0	 0.0	 0.0	 0.0	 1	    1.00000	    0.00000	 500.0	 1	    1.10000	    0.90000;
	7	 1	 0.0	 0.0	 0.0	 0.0	 1	    1.00000	    0.00000	 345.0	 1	    1.10000	    0.90000;
	8	 1	 0.0	 0.0	 0.0	 0.0	 1	    1.00000	    0.00000	 345.0	 1	    1.10000	    0.90000;
	9	 2	 0.0	 0.0	 0.0	 8.24	 1	    1.00000	    0.00000	 345.0	 1	    1.10000	    0.90000;
	10	 2	 0.0	 0.0	 0.0	 0.0	 1	    1.00000	    0.00000	 345.0	 1	    1.10000	    0.90000;
	11	 1	 0.0	 0.0	 0.0	 31.41	 1	    1.00000	    0.00000	 345.0	 1	    1.10000	    0.90000;
	12	 1	 0.0	 0.0	 0.0	 83.61	 1	    1.00000	    0.00000	 500.0	 1	    1.10000	    0.90000;
	13	 1	 0.0	 0.0	 0.0	 70.0	 1	    1.00000	    0.00000	 500.0	 1	    1.10000	    0.90000;
	14	 1	 0.0	 0.0	 0.0	 0.0	 1	    1.00000	    0.00000	 500.0	 1	    1.10000	    0.90000;
	15	 2	 16.14	 40.00	 0.0	 0.0	 1	    1.00000	    0.00000	 500.0	 1	    1.10000	    0.90000;
	16	 2	 7.34	 10.00	 0.0	 0.0	 1	    1.00000	    0.00000	 500.0	 1	    1.10000	    0.90000;
	17	 1	 77.36	 60.23	 0.0	 0.0	 1	    1.00000	    0.00000	 345.0	 1	    1.10000	    0.90000;
	18	 1	 10.17	 3.11	 0.0	 0.0	 1	    1.00000	    0.00000	 138.0	 1	    1.10000	    0.90000;
	19	 2	 21.50	 1.00	 0.0	 0.0	 1	    1.00000	    0.00000	 138.0	 1	    1.10000	    0.90000;
	20	 2	 11.95	 1.32	 0.0	 0.0	 1	    1.00000	    0.00000	 138.0	 1	    1.10000	    0.90000;
	21	 1	 20.80	 4.22	 0.0	 0.0	 1	    1.00000	    0.00000	 138.0	 1	    1.10000	    0.90000;
	22	 2	 6.19	 1.00	 0.0	 0.0	 1	    1.00000	    0.00000	 138.0	 1	    1.10000	    0.90000;
	23	 1	 0.0	 0.0	 0.0	 26.67	 1	    1.00000	    0.00000	 138.0	 1	    1.10000	    0.90000;
	24	 1	 0.0	 0.0	 0.0	 48.6	 1	    1.00000	    0.00000	 32.0	 1	    1.10000	    0.90000;
	25	 1	 0.0	 0.0	 0.0	 0.0	 1	    1.00000	    0.00000	 138.0	 1	    1.10000	    0.90000;
	26	 1	 46.92	 20.83	 0.0	 0.0	 1	    1.00000	    0.00000	 138.0	 1	    1.10000	    0.90000;
	27	 1	 7.66	 2.11	 0.0	 0.0	 1	    1.00000	    0.00000	 138.0	 1	    1.10000	    0.90000;
	28	 1	 3.83	 1.00	 0.0	 0.0	 1	    1.00000	    0.00000	 138.0	 1	    1.10000	    0.90000;
	29	 2	 0.01	 0.01	 0.0	 0.0	 1	    1.00000	    0.00000	 138.0	 1	    1.10000	    0.90000;
	30	 2	 0.01	 0.01	 0.0	 0.0	 1	    1.00000	    0.00000	 138.0	 1	    1.10000	    0.90000;
	31	 1	 23.00	 5.22	 0.0	 0.0	 1	    1.00000	    0.00000	 138.0	 1	    1.10000	    0.90000;
	32	 1	 24.63	 4.72	 0.0	 0.0	 1	    1.00000	    0.00000	 138.0	 1	    1.10000	    0.90000;
	33	 1	 0.0	 0.0	 0.0	 45.0	 1	    1.00000	    0.00000	 16.0	 1	    1.10000	    0.90000;
	34	 1	 6.19	 0.50	 0.0	 0.0	 1	    1.00000	    0.00000	 138.0	 1	    1.10000	    0.90000;
	35	 1	 14.60	 2.11	 0.0	 0.0	 1	    1.00000	    0.00000	 138.0	 1	    1.10000	    0.90000;
	36	 1	 15.92	 1.00	 0.0	 0.0	 1	    1.00000	    0.00000	 138.0	 1	    1.10000	    0.90000;
	37	 2	 21.53	 3.11	 0.0	 0.0	 1	    1.00000	    0.00000	 138.0	 1	    1.10000	    0.90000;
	38	 1	 11.07	 1.00	 0.0	 0.0	 1	    1.00000	    0.00000	 138.0	 1	    1.10000	    0.90000;
	39	 1	 3.10	 0.50	 0.0	 0.0	 1	    1.00000	    0.00000	 138.0	 1	    1.10000	    0.90000;
	40	 1	 3.10	 0.50	 0.0	 0.0	 1	    1.00000	    0.00000	 138.0	 1	    1.10000	    0.90000;
	41	 1	 12.83	 3.11	 0.0	 0.0	 1	    1.00000	    0.00000	 138.0	 1	    1.10000	    0.90000;
	42	 1	 8.41	 1.00	 0.0	 0.0	 1	    1.00000	    0.00000	 138.0	 1	    1.10000	    0.90000;
	43	 1	 63.67	 6.25	 0.0	 0.0	 1	    1.00000	    0.00000	 138.0	 1	    1.10000	    0.90000;
	44	 2	 13.87	 2.61	 0.0	 0.0	 1	    1.00000	    0.00000	 138.0	 1	    1.10000	    0.90000;
	45	 2	 61.69	 12.76	 0.0	 0.0	 1	    1.00000	    0.00000	 138.0	 1	    1.10000	    0.90000;
	46	 1	 23.00	 2.61	 0.0	 0.0	 1	    1.00000	    0.00000	 138.0	 1	    1.10000	    0.90000;
	47	 1	 29.19	 6.83	 0.0	 0.0	 1	    1.00000	    0.00000	 138.0	 1	    1.10000	    0.90000;
	48	 1	 12.24	 2.71	 0.0	 0.0	 1	    1.00000	    0.00000	 138.0	 1	    1.10000	    0.90000;
	49	 2	 24.63	 6.33	 0.0	 0.0	 1	    1.00000	    0.00000	 138.0	 1	    1.10000	    0.90000;
	50	 1	 19.29	 1.26	 0.0	 0.0	 1	    1.00000	    0.00000	 138.0	 1	    1.10000	    0.90000;
	51	 1	 7.66	 0.50	 0.0	 0.0	 1	    1.00000	    0.00000	 138.0	 1	    1.10000	    0.90000;
	52	 1	 0.0	 0.0	 0.0	 -16.07	 1	    1.00000	    0.00000	 138.0	 1	    1.10000	    0.90000;
	53	 1	 100.77	 4.97	 0.0	 -2.01	 1	    1.00000	    0.00000	 138.0	 1	    1.10000	    0.90000;
	54	 2	 13.87	 1.00	 0.0	 -0.93	 1	    1.00000	    0.00000	 138.0	 1	    1.10000	    0.90000;
	55	 1	 12.24	 3.11	 0.0	 0.0	 1	    1.00000	    0.00000	 138.0	 1	    1.10000	    0.90000;
	56	 1	 0.0	 0.0	 0.0	 0.0	 1	    1.00000	    0.00000	 138.0	 1	    1.10000	    0.90000;
	57	 1	 28.12	 2.01	 0.0	 0.0	 1	    1.00000	    0.00000	 138.0	 1	    1.10000	    0.90000;
	58	 2	 44.68	 4.22	 0.0	 0.0	 1	    1.00000	    0.00000	 138.0	 1	    1.10000	    0.90000;
	59	 1	 27.72	 4.72	 0.0	 0.0	 1	    1.00000	    0.00000	 138.0	 1	    1.10000	    0.90000;
	60	 2	 16.95	 1.00	 0.0	 0.0	 1	    1.00000	    0.00000	 138.0	 1	    1.10000	    0.90000;
	61	 1	 26.10	 4.22	 0.0	 0.0	 1	    1.00000	    0.00000	 138.0	 1	    1.10000	    0.90000;
	62	 1	 0.0	 0.0	 0.0	 0.0	 1	    1.00000	    0.00000	 138.0	 1	    1.10000	    0.90000;
	63	 1	 0.0	 0.0	 0.0	 -15.19	 1	    1.00000	    0.00000	 138.0	 1	    1.10000	    0.90000;
	64	 1	 0.0	 0.0	 0.0	 -14.11	 1	    1.00000	    0.00000	 138.0	 1	    1.10000	    0.90000;
	65	 1	 0.0	 0.0	 0.0	 0.0	 1	    1.00000	    0.00000	 500.0	 1	    1.10000	    0.90000;
	66	 1	 0.0	 0.0	 0.0	 30.47	 2	    1.00000	    0.00000	 345.0	 2	    1.10000	    0.90000;
	67	 1	 0.0	 0.0	 0.0	 -20.0	 2	    1.00000	    0.00000	 345.0	 2	    1.10000	    0.90000;
	68	 2	 0.0	 0.0	 0.0	 62.48	 2	    1.00000	    0.00000	 500.0	 2	    1.10000	    0.90000;
	69	 2	 0.0	 0.0	 0.0	 0.0	 2	    1.00000	    0.00000	 500.0	 2	    1.10000	    0.90000;
	70	 1	 47.66	 85.89	 0.0	 0.0	 2	    1.00000	    0.00000	 500.0	 2	    1.10000	    0.90000;
	71	 1	 0.0	 0.0	 0.0	 0.0	 2	    1.00000	    0.00000	 500.0	 2	    1.10000	    0.90000;
	72	 1	 0.0	 0.0	 0.0	 0.0	 2	    1.00000	    0.00000	 345.0	 2	    1.10000	    0.90000;
	73	 1	 0.0	 0.0	 0.0	 0.0	 2	    1.00000	    0.00000	 345.0	 2	    1.10000	    0.90000;
	74	 2	 0.0	 0.0	 0.0	 -84.68	 2	    1.00000	    0.00000	 345.0	 2	    1.10000	    0.90000;
	75	 2	 0.0	 0.0	 0.0	 0.0	 2	    1.00000	    0.00000	 345.0	 2	    1.10000	    0.90000;
	76	 1	 62.88	 29.61	 0.0	 0.0	 2	    1.00000	    0.00000	 345.0	 2	    1.10000	    0.90000;
	77	 1	 0.0	 0.0	 0.0	 83.62	 2	    1.00000	    0.00000	 500.0	 2	    1.10000	    0.90000;
	78	 1	 0.0	 0.0	 0.0	 70.0	 2	    1.00000	    0.00000	 500.0	 2	    1.10000	    0.90000;
	79	 1	 0.0	 0.0	 0.0	 0.0	 2	    1.00000	    0.00000	 500.0	 2	    1.10000	    0.90000;
	80	 2	 16.14	 40.00	 0.0	 0.0	 2	    1.00000	    0.00000	 500.0	 2	    1.10000	    0.90000;
	81	 2	 7.34	 10.00	 0.0	 0.0	 2	    1.00000	    0.00000	 500.0	 2	    1.10000	    0.90000;
	82	 1	 77.36	 60.23	 0.0	 0.0	 2	    1.00000	    0.00000	 345.0	 2	    1.10000	    0.90000;
	83	 1	 10.17	 3.11	 0.0	 0.0	 2	    1.00000	    0.00000	 138.0	 2	    1.10000	    0.90000;
	84	 2	 21.50	 1.00	 0.0	 0.0	 2	    1.00000	    0.00000	 138.0	 2	    1.10000	    0.90000;
	85	 2	 11.95	 1.32	 0.0	 0.0	 2	    1.00000	    0.00000	 138.0	 2	    1.10000	    0.90000;
	86	 1	 20.80	 4.22	 0.0	 0.0	 2	    1.00000	    0.00000	 138.0	 2	    1.10000	    0.90000;
	87	 2	 6.19	 1.00	 0.0	 0.0	 2	    1.00000	    0.00000	 138.0	 2	    1.10000	    0.90000;
	88	 1	 90.25	 28.47	 0.0	 0.0	 2	    1.00000	    0.00000	 138.0	 2	    1.10000	    0.90000;
	89	 1	 0.0	 0.0	 0.0	 48.6	 2	    1.00000	    0.00000	 32.0	 2	    1.10000	    0.90000;
	90	 1	 0.0	 0.0	 0.0	 0.0	 2	    1.00000	    0.00000	 138.0	 2	    1.10000	    0.90000;
	91	 1	 5.80	 20.83	 0.0	 0.0	 2	    1.00000	    0.00000	 138.0	 2	    1.10000	    0.90000;
	92	 1	 7.66	 2.11	 0.0	 0.0	 2	    1.00000	    0.00000	 138.0	 2	    1.10000	    0.90000;
	93	 1	 3.83	 1.00	 0.0	 0.0	 2	    1.00000	    0.00000	 138.0	 2	    1.10000	    0.90000;
	94	 2	 0.01	 0.01	 0.0	 0.0	 2	    1.00000	    0.00000	 138.0	 2	    1.10000	    0.90000;
	95	 2	 0.01	 0.01	 0.0	 0.0	 2	    1.00000	    0.00000	 138.0	 2	    1.10000	    0.90000;
	96	 1	 23.00	 5.22	 0.0	 0.0	 2	    1.00000	    0.00000	 138.0	 2	    1.10000	    0.90000;
	97	 1	 24.63	 4.72	 0.0	 0.0	 2	    1.00000	    0.00000	 138.0	 2	    1.10000	    0.90000;
	98	 1	 0.0	 0.0	 0.0	 45.0	 2	    1.00000	    0.00000	 16.0	 2	    1.10000	    0.90000;
	99	 1	 6.19	 0.50	 0.0	 0.0	 2	    1.00000	    0.00000	 138.0	 2	    1.10000	    0.90000;
	100	 1	 14.60	 2.11	 0.0	 0.0	 2	    1.00000	    0.00000	 138.0	 2	    1.10000	    0.90000;
	101	 1	 15.92	 1.00	 0.0	 0.0	 2	    1.00000	    0.00000	 138.0	 2	    1.10000	    0.90000;
	102	 2	 21.53	 3.11	 0.0	 0.0	 2	    1.00000	    0.00000	 138.0	 2	    1.10000	    0.90000;
	103	 1	 11.07	 1.00	 0.0	 0.0	 2	    1.00000	    0.00000	 138.0	 2	    1.10000	    0.90000;
	104	 1	 3.10	 0.50	 0.0	 0.0	 2	    1.00000	    0.00000	 138.0	 2	    1.10000	    0.90000;
	105	 1	 3.10	 0.50	 0.0	 0.0	 2	    1.00000	    0.00000	 138.0	 2	    1.10000	    0.90000;
	106	 1	 12.83	 3.11	 0.0	 0.0	 2	    1.00000	    0.00000	 138.0	 2	    1.10000	    0.90000;
	107	 1	 8.41	 1.00	 0.0	 0.0	 2	    1.00000	    0.00000	 138.0	 2	    1.10000	    0.90000;
	108	 1	 63.27	 6.25	 0.0	 0.0	 2	    1.00000	    0.00000	 138.0	 2	    1.10000	    0.90000;
	109	 2	 13.87	 2.61	 0.0	 0.0	 2	    1.00000	    0.00000	 138.0	 2	    1.10000	    0.90000;
	110	 2	 61.69	 12.76	 0.0	 0.0	 2	    1.00000	    0.00000	 138.0	 2	    1.10000	    0.90000;
	111	 1	 23.00	 2.61	 0.0	 0.0	 2	    1.00000	    0.00000	 138.0	 2	    1.10000	    0.90000;
	112	 1	 29.19	 6.83	 0.0	 0.0	 2	    1.00000	    0.00000	 138.0	 2	    1.10000	    0.90000;
	113	 1	 12.24	 2.71	 0.0	 0.0	 2	    1.00000	    0.00000	 138.0	 2	    1.10000	    0.90000;
	114	 2	 24.63	 6.33	 0.0	 0.0	 2	    1.00000	    0.00000	 138.0	 2	    1.10000	    0.90000;
	115	 1	 19.29	 1.26	 0.0	 0.0	 2	    1.00000	    0.00000	 138.0	 2	    1.10000	    0.90000;
	116	 1	 7.66	 0.50	 0.0	 0.0	 2	    1.00000	    0.00000	 138.0	 2	    1.10000	    0.90000;
	117	 1	 0.0	 0.0	 0.0	 -16.07	 2	    1.00000	    0.00000	 138.0	 2	    1.10000	    0.90000;
	118	 1	 100.77	 4.97	 0.0	 -2.01	 2	    1.00000	    0.00000	 138.0	 2	    1.10000	    0.90000;
	119	 2	 13.87	 1.00	 0.0	 1.92	 2	    1.00000	    0.00000	 138.0	 2	    1.10000	    0.90000;
	120	 1	 12.24	 3.11	 0.0	 0.0	 2	    1.00000	    0.00000	 138.0	 2	    1.10000	    0.90000;
	121	 1	 0.0	 0.0	 0.0	 0.0	 2	    1.00000	    0.00000	 138.0	 2	    1.10000	    0.90000;
	122	 1	 28.12	 2.01	 0.0	 0.0	 2	    1.00000	    0.00000	 138.0	 2	    1.10000	    0.90000;
	123	 2	 44.68	 4.22	 0.0	 0.0	 2	    1.00000	    0.00000	 138.0	 2	    1.10000	    0.90000;
	124	 1	 27.72	 4.72	 0.0	 0.0	 2	    1.00000	    0.00000	 138.0	 2	    1.10000	    0.90000;
	125	 2	 16.95	 1.00	 0.0	 0.0	 2	    1.00000	    0.00000	 138.0	 2	    1.10000	    0.90000;
	126	 1	 26.10	 4.22	 0.0	 0.0	 2	    1.00000	    0.00000	 138.0	 2	    1.10000	    0.90000;
	127	 1	 0.0	 0.0	 0.0	 0.0	 2	    1.00000	    0.00000	 138.0	 2	    1.10000	    0.90000;
	128	 1	 0.0	 0.0	 0.0	 -15.19	 2	    1.00000	    0.00000	 138.0	 2	    1.10000	    0.90000;
	129	 1	 0.0	 0.0	 0.0	 -14.11	 2	    1.00000	    0.00000	 138.0	 2	    1.10000	    0.90000;
	130	 1	 0.0	 0.0	 0.0	 0.0	 2	    1.00000	    0.00000	 500.0	 2	    1.10000	    0.90000;
	131	 1	 59.57	 70.73	 0.0	 0.0	 3	    1.00000	    0.00000	 345.0	 3	    1.10000	    0.90000;
	132	 2	 0.0	 0.0	 0.0	 -176.98	 3	    1.00000	    0.00000	 345.0	 3	    1.10000	    0.90000;
	133	 2	 0.0	 0.0	 0.0	 0.0	 3	    1.00000	    0.00000	 500.0	 3	    1.10000	    0.90000;
	134	 1	 0.0	 0.0	 0.0	 0.0	 3	    1.00000	    0.00000	 500.0	 3	    1.10000	    0.90000;
	135	 2	 0.0	 0.0	 0.0	 17.28	 3	    1.00000	    0.00000	 500.0	 3	    1.10000	    0.90000;
	136	 1	 12.30	 1.20	 0.0	 0.0	 3	    1.00000	    0.00000	 138.0	 3	    1.10000	    0.90000;
	137	 1	 7.09	 1.10	 0.0	 0.0	 3	    1.00000	    0.00000	 138.0	 3	    1.10000	    0.90000;
	138	 2	 0.0	 0.0	 0.0	 0.0	 3	    1.00000	    0.00000	 138.0	 3	    1.10000	    0.90000;
	139	 1	 16.95	 5.82	 0.0	 0.0	 3	    1.00000	    0.00000	 138.0	 3	    1.10000	    0.90000;
	140	 1	 19.31	 4.92	 0.0	 0.0	 3	    1.00000	    0.00000	 138.0	 3	    1.10000	    0.90000;
	141	 1	 38.22	 3.35	 0.0	 0.0	 3	    1.00000	    0.00000	 138.0	 3	    1.10000	    0.90000;
	142	 2	 18.43	 2.11	 0.0	 13.51	 3	    1.00000	    0.00000	 138.0	 3	    1.10000	    0.90000;
	143	 1	 6.93	 0.70	 0.0	 0.0	 3	    1.00000	    0.00000	 138.0	 3	    1.10000	    0.90000;
	144	 2	 9.45	 -3.27	 0.0	 0.0	 3	    1.00000	    0.00000	 138.0	 3	    1.10000	    0.90000;
	145	 1	 14.90	 4.22	 0.0	 0.0	 3	    1.00000	    0.00000	 138.0	 3	    1.10000	    0.90000;
	146	 1	 0.0	 0.0	 0.0	 0.0	 3	    1.00000	    0.00000	 138.0	 3	    1.10000	    0.90000;
	147	 1	 0.0	 0.0	 0.0	 0.0	 3	    1.00000	    0.00000	 138.0	 3	    1.10000	    0.90000;
	148	 1	 0.0	 0.0	 0.0	 0.0	 3	    1.00000	    0.00000	 138.0	 3	    1.10000	    0.90000;
	149	 1	 0.0	 0.0	 0.0	 60.0	 3	    1.00000	    0.00000	 16.0	 3	    1.10000	    0.90000;
	150	 1	 26.10	 4.22	 0.0	 0.0	 3	    1.00000	    0.00000	 138.0	 3	    1.10000	    0.90000;
	151	 1	 11.80	 4.12	 0.0	 0.0	 3	    1.00000	    0.00000	 138.0	 3	    1.10000	    0.90000;
	152	 2	 0.01	 0.01	 0.0	 0.0	 3	    1.00000	    0.00000	 138.0	 3	    1.10000	    0.90000;
	153	 2	 107.63	 31.39	 0.0	 0.0	 3	    1.00000	    0.00000	 138.0	 3	    1.10000	    0.90000;
	154	 1	 92.32	 26.21	 0.0	 0.0	 3	    1.00000	    0.00000	 138.0	 3	    1.10000	    0.90000;
	155	 1	 0.0	 0.0	 0.0	 0.0	 3	    1.00000	    0.00000	 138.0	 3	    1.10000	    0.90000;
	156	 1	 12.24	 2.61	 0.0	 0.0	 3	    1.00000	    0.00000	 138.0	 3	    1.10000	    0.90000;
	157	 2	 7.51	 0.68	 0.0	 0.0	 3	    1.00000	    0.00000	 138.0	 3	    1.10000	    0.90000;
	158	 1	 22.27	 4.72	 0.0	 0.0	 3	    1.00000	    0.00000	 138.0	 3	    1.10000	    0.90000;
	159	 2	 20.05	 6.33	 0.0	 2.71	 3	    1.00000	    0.00000	 138.0	 3	    1.10000	    0.90000;
	160	 2	 13.12	 2.32	 0.0	 3.95	 3	    1.00000	    0.00000	 138.0	 3	    1.10000	    0.90000;
	161	 1	 20.53	 11.80	 0.0	 0.0	 3	    1.00000	    0.00000	 138.0	 3	    1.10000	    0.90000;
	162	 1	 13.87	 2.21	 0.0	 0.0	 3	    1.00000	    0.00000	 138.0	 3	    1.10000	    0.90000;
	163	 1	 16.95	 2.61	 0.0	 0.0	 3	    1.00000	    0.00000	 138.0	 3	    1.10000	    0.90000;
	164	 1	 5.75	 1.61	 0.0	 0.0	 3	    1.00000	    0.00000	 138.0	 3	    1.10000	    0.90000;
	165	 1	 23.89	 5.22	 0.0	 3.33	 3	    1.00000	    0.00000	 138.0	 3	    1.10000	    0.90000;
	166	 1	 18.29	 5.82	 0.0	 0.0	 3	    1.00000	    0.00000	 138.0	 3	    1.10000	    0.90000;
	167	 2	 0.0	 0.0	 0.0	 15.41	 3	    1.00000	    0.00000	 138.0	 3	    1.10000	    0.90000;
	168	 2	 18.43	 4.22	 0.0	 -33.87	 3	    1.00000	    0.00000	 138.0	 3	    1.10000	    0.90000;
	169	 1	 34.65	 4.72	 0.0	 0.0	 3	    1.00000	    0.00000	 138.0	 3	    1.10000	    0.90000;
	170	 1	 0.15	 0.10	 0.0	 0.0	 3	    1.00000	    0.00000	 138.0	 3	    1.10000	    0.90000;
	171	 1	 0.15	 0.10	 0.0	 0.0	 3	    1.00000	    0.00000	 138.0	 3	    1.10000	    0.90000;
	172	 2	 13.87	 2.31	 0.0	 0.0	 3	    1.00000	    0.00000	 138.0	 3	    1.10000	    0.90000;
	173	 1	 19.90	 6.23	 0.0	 0.0	 3	    1.00000	    0.00000	 138.0	 3	    1.10000	    0.90000;
	174	 1	 10.02	 2.61	 0.0	 0.0	 3	    1.00000	    0.00000	 138.0	 3	    1.10000	    0.90000;
	175	 1	 6.93	 2.61	 0.0	 0.0	 3	    1.00000	    0.00000	 138.0	 3	    1.10000	    0.90000;
	176	 1	 9.29	 0.90	 0.0	 0.0	 3	    1.00000	    0.00000	 138.0	 3	    1.10000	    0.90000;
	177	 1	 6.05	 2.51	 0.0	 0.0	 3	    1.00000	    0.00000	 138.0	 3	    1.10000	    0.90000;
	178	 2	 0.01	 0.01	 0.0	 0.0	 3	    1.00000	    0.00000	 138.0	 3	    1.10000	    0.90000;
	179	 1	 44.31	 -3.00	 0.0	 0.0	 3	    1.00000	    0.00000	 138.0	 3	    1.10000	    0.90000;
	180	 2	 9.29	 1.57	 0.0	 1.75	 3	    1.00000	    0.00000	 138.0	 3	    1.10000	    0.90000;
	181	 1	 90.18	 45.53	 0.0	 0.0	 4	    1.00000	    0.00000	 345.0	 4	    1.10000	    0.90000;
	182	 1	 0.0	 0.0	 0.0	 0.0	 4	    1.00000	    0.00000	 345.0	 4	    1.10000	    0.90000;
	183	 2	 49.18	 159.40	 0.0	 0.0	 4	    1.00000	    0.00000	 345.0	 4	    1.10000	    0.90000;
	184	 2	 29.22	 36.57	 0.0	 0.0	 4	    1.00000	    0.00000	 345.0	 4	    1.10000	    0.90000;
	185	 2	 17.61	 30.00	 0.0	 0.0	 4	    1.00000	    0.00000	 500.0	 4	    1.10000	    0.90000;
	186	 2	 17.61	 30.00	 0.0	 0.0	 4	    1.00000	    0.00000	 500.0	 4	    1.10000	    0.90000;
	187	 2	 0.0	 0.0	 0.0	 0.0	 4	    1.00000	    0.00000	 500.0	 4	    1.10000	    0.90000;
	188	 1	 0.0	 0.0	 0.0	 93.07	 4	    1.00000	    0.00000	 500.0	 4	    1.10000	    0.90000;
	189	 1	 49.04	 22.47	 0.0	 0.0	 4	    1.00000	    0.00000	 345.0	 4	    1.10000	    0.90000;
	190	 1	 27.17	 68.88	 0.0	 0.0	 4	    1.00000	    0.00000	 345.0	 4	    1.10000	    0.90000;
	191	 1	 21.63	 4.03	 0.0	 0.0	 4	    1.00000	    0.00000	 345.0	 4	    1.10000	    0.90000;
	192	 1	 0.0	 0.0	 0.0	 168.92	 4	    1.00000	    0.00000	 500.0	 4	    1.10000	    0.90000;
	193	 1	 47.30	 53.02	 0.0	 0.0	 4	    1.00000	    0.00000	 345.0	 4	    1.10000	    0.90000;
	194	 1	 119.62	 85.90	 0.0	 0.0	 4	    1.00000	    0.00000	 345.0	 4	    1.10000	    0.90000;
	195	 1	 0.0	 0.0	 0.0	 0.0	 4	    1.00000	    0.00000	 500.0	 4	    1.10000	    0.90000;
	196	 1	 0.0	 0.0	 0.0	 0.0	 4	    1.00000	    0.00000	 500.0	 4	    1.10000	    0.90000;
	197	 1	 0.0	 0.0	 0.0	 -59.0	 4	    1.00000	    0.00000	 500.0	 4	    1.10000	    0.90000;
	198	 1	 15.91	 2.51	 0.0	 0.0	 4	    1.00000	    0.00000	 138.0	 4	    1.10000	    0.90000;
	199	 2	 190.04	 36.94	 0.0	 0.0	 4	    1.00000	    0.00000	 138.0	 4	    1.10000	    0.90000;
	200	 1	 0.0	 0.0	 0.0	 0.0	 4	    1.00000	    0.00000	 138.0	 4	    1.10000	    0.90000;
...
];

%% generator data
%	bus	Pg	Qg	Qmax	Qmin	Vg	mBase	status	Pmax	Pmin	Pc1	Pc2	Qc1min	Qc1max	Qc2min	Qc2max	ramp_agc	ramp_10	ramp_30	ramp_q	apf
mpc.gen = [
	3	 0.0	 0.0	 78.0	 -78.0	 1.0	 100.0	 0	 156	 61.48	 0.0	 0.0	 0.0	 0.0	 0.0	 0.0	 0.0	 0.0	 0.0	 0.0	 137.955; % NG
	4	 243.545	 -34.935	 279.47	 -349.34	 1.0	 100.0	 1	 401	 86.09	 0.0	 0.0	 0.0	 0.0	 0.0	 0.0	 0.0	 0.0	 0.0	 0.0	 281.739; % NG
	9	 0.0	 0.0	 33.33	 -33.33	 1.0	 100.0	 0	 43	 35.125	 0.0	 0.0	 0.0	 0.0	 0.0	 0.0	 0.0	 0.0	 0.0	 0.0	 85.248; % NG
	10	 161.875	 0.0	 138.0	 -138.0	 1.0	 100.0	 1	 275	 48.75	 0.0	 0.0	 0.0	 0.0	 0.0	 0.0	 0.0	 0.0	 0.0	 0.0	 221.788; % NG
	15	 -82.0	 21.5	 105.0	 -62.0	 1.0	 216.55	 1	 36	 -200.0	 0.0	 0.0	 0.0	 0.0	 0.0	 0.0	 0.0	 0.0	 0.0	 0.0	 179.0; % COW
	15	 -84.0	 21.5	 105.0	 -62.0	 1.0	 179.0	 1	 32	 -200.0	 0.0	 0.0	 0.0	 0.0	 0.0	 0.0	 0.0	 0.0	 0.0	 0.0	 179.0; % NG
	15	 -74.5	 27.5	 130.0	 -75.0	 1.0	 179.0	 1	 51	 -200.0	 0.0	 0.0	 0.0	 0.0	 0.0	 0.0	 0.0	 0.0	 0.0	 0.0	 179.0; % NG
	16	 -93.0	 30.0	 160.0	 -100.0	 1.0	 179.0	 1	 14	 -200.0	 0.0	 0.0	 0.0	 0.0	 0.0	 0.0	 0.0	 0.0	 0.0	 0.0	 179.0; % COW
	19	 238.5	 0.0	 232.0	 -232.0	 1.0	 58.99	 1	 464	 13.0	 0.0	 0.0	 0.0	 0.0	 0.0	 0.0	 0.0	 0.0	 0.0	 0.0	 55.0; % NG
	20	 0.0	 0.0	 64.0	 -64.0	 1.0	 55.0	 0	 128	 13.0	 0.0	 0.0	 0.0	 0.0	 0.0	 0.0	 0.0	 0.0	 0.0	 0.0	 55.0; % NG
	22	 13.0	 2.0	 184.0	 -180.0	 1.0	 0.36	 1	 26	 0.0	 0.0	 0.0	 0.0	 0.0	 0.0	 0.0	 0.0	 0.0	 0.0	 0.0	 285.0; % NG
	29	 36.0	 0.5	 178.0	 -177.0	 1.0	 18.0	 1	 72	 0.0	 0.0	 0.0	 0.0	 0.0	 0.0	 0.0	 0.0	 0.0	 0.0	 0.0	 18.0; % NG
	30	 33.0	 -0.5	 179.0	 -180.0	 1.0	 22.0	 1	 66	 0.0	 0.0	 0.0	 0.0	 0.0	 0.0	 0.0	 0.0	 0.0	 0.0	 0.0	 22.0; % PEL
	37	 25.0	 9.0	 186.0	 -168.0	 1.0	 0.24	 1	 50	 0.0	 0.0	 0.0	 0.0	 0.0	 0.0	 0.0	 0.0	 0.0	 0.0	 0.0	 296.0; % NG
	44	 54.25	 4.5	 178.0	 -169.0	 1.0	 2.0	 1	 108	 0.5	 0.0	 0.0	 0.0	 0.0	 0.0	 0.0	 0.0	 0.0	 0.0	 0.0	 269.0; % COW
	45	 48.5	 11.0	 188.0	 -166.0	 1.0	 15.0	 1	 97	 0.0	 0.0	 0.0	 0.0	 0.0	 0.0	 0.0	 0.0	 0.0	 0.0	 0.0	 15.0; % NG
	49	 34.5	 5.5	 191.0	 -180.0	 1.0	 1.0	 1	 69	 0.0	 0.0	 0.0	 0.0	 0.0	 0.0	 0.0	 0.0	 0.0	 0.0	 0.0	 285.0; % NG
	54	 12.0	 10.0	 189.0	 -169.0	 1.0	 0.12	 1	 24	 0.0	 0.0	 0.0	 0.0	 0.0	 0.0	 0.0	 0.0	 0.0	 0.0	 0.0	 258.0; % NG
	54	 0.0	 0.0	 64.0	 -64.0	 1.0	 100.0	 0	 128	 9.72	 0.0	 0.0	 0.0	 0.0	 0.0	 0.0	 0.0	 0.0	 0.0	 0.0	 34.44; % NG
	58	 31.5	 9.0	 198.0	 -180.0	 1.0	 9.0	 1	 63	 0.0	 0.0	 0.0	 0.0	 0.0	 0.0	 0.0	 0.0	 0.0	 0.0	 0.0	 297.0; % NG
	60	 40.0	 -2.5	 179.0	 -184.0	 1.0	 0.24	 1	 80	 0.0	 0.0	 0.0	 0.0	 0.0	 0.0	 0.0	 0.0	 0.0	 0.0	 0.0	 278.0; % COW
	68	 0.0	 0.0	 33.33	 -33.33	 1.0	 100.0	 0	 51	 122.96	 0.0	 0.0	 0.0	 0.0	 0.0	 0.0	 0.0	 0.0	 0.0	 0.0	 137.955; % NG
	69	 194.545	 -35.27	 282.12	 -352.66	 1.0	 100.0	 1	 303	 86.09	 0.0	 0.0	 0.0	 0.0	 0.0	 0.0	 0.0	 0.0	 0.0	 0.0	 281.739; % NG
	74	 0.0	 0.0	 33.33	 -33.33	 1.0	 100.0	 0	 20	 70.25	 0.0	 0.0	 0.0	 0.0	 0.0	 0.0	 0.0	 0.0	 0.0	 0.0	 85.248; % NG
	75	 228.52	 0.0	 209.0	 -209.0	 1.0	 100.0	 1	 418	 39.04	 0.0	 0.0	 0.0	 0.0	 0.0	 0.0	 0.0	 0.0	 0.0	 0.0	 221.788; % NG
	80	 -77.5	 21.5	 105.0	 -62.0	 1.0	 216.55	 1	 45	 -200.0	 0.0	 0.0	 0.0	 0.0	 0.0	 0.0	 0.0	 0.0	 0.0	 0.0	 179.0; % COW
	80	 -72.5	 21.5	 105.0	 -62.0	 1.0	 179.0	 1	 55	 -200.0	 0.0	 0.0	 0.0	 0.0	 0.0	 0.0	 0.0	 0.0	 0.0	 0.0	 179.0; % NG
	80	 -90.0	 27.5	 130.0	 -75.0	 1.0	 179.0	 1	 20	 -200.0	 0.0	 0.0	 0.0	 0.0	 0.0	 0.0	 0.0	 0.0	 0.0	 0.0	 179.0; % COW
	81	 -89.5	 30.0	 160.0	 -100.0	 1.0	 179.0	 1	 21	 -200.0	 0.0	 0.0	 0.0	 0.0	 0.0	 0.0	 0.0	 0.0	 0.0	 0.0	 179.0; % NG
	84	 160.5	 -10.5	 154.0	 -175.0	 1.0	 58.99	 1	 308	 13.0	 0.0	 0.0	 0.0	 0.0	 0.0	 0.0	 0.0	 0.0	 0.0	 0.0	 55.0; % NG
	85	 0.0	 0.0	 18.33	 -18.33	 1.0	 55.0	 0	 3	 26.0	 0.0	 0.0	 0.0	 0.0	 0.0	 0.0	 0.0	 0.0	 0.0	 0.0	 55.0; % NG
	87	 27.0	 9.5	 197.0	 -178.0	 1.0	 0.36	 1	 54	 0.0	 0.0	 0.0	 0.0	 0.0	 0.0	 0.0	 0.0	 0.0	 0.0	 0.0	 256.0; % NG
	94	 35.5	 4.5	 179.0	 -170.0	 1.0	 18.0	 1	 71	 0.0	 0.0	 0.0	 0.0	 0.0	 0.0	 0.0	 0.0	 0.0	 0.0	 0.0	 18.0; % NG
	95	 25.0	 7.5	 199.0	 -184.0	 1.0	 22.0	 1	 50	 0.0	 0.0	 0.0	 0.0	 0.0	 0.0	 0.0	 0.0	 0.0	 0.0	 0.0	 22.0; % NG
	102	 20.0	 8.0	 182.0	 -166.0	 1.0	 0.24	 1	 40	 0.0	 0.0	 0.0	 0.0	 0.0	 0.0	 0.0	 0.0	 0.0	 0.0	 0.0	 268.0; % COW
	109	 32.75	 3.5	 191.0	 -184.0	 1.0	 2.0	 1	 65	 0.5	 0.0	 0.0	 0.0	 0.0	 0.0	 0.0	 0.0	 0.0	 0.0	 0.0	 268.0; % NG
	110	 183.5	 3.5	 191.0	 -184.0	 1.0	 15.0	 1	 367	 0.0	 0.0	 0.0	 0.0	 0.0	 0.0	 0.0	 0.0	 0.0	 0.0	 0.0	 15.0; % NG
	114	 86.5	 6.0	 183.0	 -171.0	 1.0	 1.0	 1	 173	 0.0	 0.0	 0.0	 0.0	 0.0	 0.0	 0.0	 0.0	 0.0	 0.0	 0.0	 298.0; % NG
	119	 71.0	 12.5	 192.0	 -167.0	 1.0	 0.12	 1	 142	 0.0	 0.0	 0.0	 0.0	 0.0	 0.0	 0.0	 0.0	 0.0	 0.0	 0.0	 283.0; % COW
	119	 0.0	 0.0	 33.33	 -33.33	 1.0	 100.0	 0	 43	 9.72	 0.0	 0.0	 0.0	 0.0	 0.0	 0.0	 0.0	 0.0	 0.0	 0.0	 34.44; % NG
	123	 93.5	 14.0	 200.0	 -172.0	 1.0	 9.0	 1	 187	 0.0	 0.0	 0.0	 0.0	 0.0	 0.0	 0.0	 0.0	 0.0	 0.0	 0.0	 264.0; % NG
	125	 20.0	 14.5	 196.0	 -167.0	 1.0	 0.24	 1	 40	 0.0	 0.0	 0.0	 0.0	 0.0	 0.0	 0.0	 0.0	 0.0	 0.0	 0.0	 253.0; % COW
	132	 0.0	 0.0	 54.0	 -54.0	 1.0	 100.0	 0	 107	 10.145	 0.0	 0.0	 0.0	 0.0	 0.0	 0.0	 0.0	 0.0	 0.0	 0.0	 35.288; % PEL
	133	 154.6725	 0.0	 202.93	 -202.93	 1.0	 100.0	 1	 279	 30.345	 0.0	 0.0	 0.0	 0.0	 0.0	 0.0	 0.0	 0.0	 0.0	 0.0	 393.516; % NG
	135	 0.0	 0.0	 65.0	 -65.0	 1.0	 100.0	 0	 130	 43.445	 0.0	 0.0	 0.0	 0.0	 0.0	 0.0	 0.0	 0.0	 0.0	 0.0	 101.886; % NG
	138	 32.1175	 0.0	 30.0	 -30.0	 1.0	 100.0	 1	 59	 5.235	 0.0	 0.0	 0.0	 0.0	 0.0	 0.0	 0.0	 0.0	 0.0	 0.0	 33.726; % PEL
	142	 0.0	 0.0	 33.33	 -33.33	 1.0	 100.0	 0	 31	 5.12	 0.0	 0.0	 0.0	 0.0	 0.0	 0.0	 0.0	 0.0	 0.0	 0.0	 25.238; % NG
	144	 0.0	 0.0	 125.0	 -125.0	 1.0	 7.0	 0	 249	 2.5	 0.0	 0.0	 0.0	 0.0	 0.0	 0.0	 0.0	 0.0	 0.0	 0.0	 270.0; % COW
	152	 47.5	 10.5	 192.0	 -171.0	 1.0	 41.0	 1	 95	 0.0	 0.0	 0.0	 0.0	 0.0	 0.0	 0.0	 0.0	 0.0	 0.0	 0.0	 41.0; % PEL
	153	 88.0	 -45.0	 88.0	 -178.0	 1.0	 37.52	 1	 176	 0.0	 0.0	 0.0	 0.0	 0.0	 0.0	 0.0	 0.0	 0.0	 0.0	 0.0	 25.0; % NG
	153	 97.5	 -36.0	 98.0	 -170.0	 1.0	 35.0	 1	 195	 0.0	 0.0	 0.0	 0.0	 0.0	 0.0	 0.0	 0.0	 0.0	 0.0	 0.0	 35.0; % NG
	153	 0.0	 0.0	 68.0	 -68.0	 1.0	 25.0	 0	 135	 0.0	 0.0	 0.0	 0.0	 0.0	 0.0	 0.0	 0.0	 0.0	 0.0	 0.0	 25.0; % PEL
	157	 0.0	 0.0	 321.0	 -321.0	 1.0	 2.0	 0	 641	 0.0	 0.0	 0.0	 0.0	 0.0	 0.0	 0.0	 0.0	 0.0	 0.0	 0.0	 266.0; % COW
	159	 0.0	 0.0	 147.0	 -147.0	 1.0	 100.0	 0	 293	 18.605	 0.0	 0.0	 0.0	 0.0	 0.0	 0.0	 0.0	 0.0	 0.0	 0.0	 52.208; % NG
	160	 0.0	 0.0	 33.33	 -33.33	 1.0	 100.0	 0	 57	 0.0	 0.0	 0.0	 0.0	 0.0	 0.0	 0.0	 0.0	 0.0	 0.0	 0.0	 274.0; % NG
	167	 0.0	 0.0	 65.0	 -65.0	 1.0	 100.0	 0	 129	 6.485	 0.0	 0.0	 0.0	 0.0	 0.0	 0.0	 0.0	 0.0	 0.0	 0.0	 27.972; % NG
	168	 0.0	 0.0	 33.33	 -33.33	 1.0	 100.0	 0	 64	 5.92	 0.0	 0.0	 0.0	 0.0	 0.0	 0.0	 0.0	 0.0	 0.0	 0.0	 26.842; % COW
	172	 57.0	 -1.5	 181.0	 -184.0	 1.0	 0.36	 1	 114	 0.0	 0.0	 0.0	 0.0	 0.0	 0.0	 0.0	 0.0	 0.0	 0.0	 0.0	 276.0; % NG
	178	 49.5	 1.0	 185.0	 -183.0	 1.0	 18.0	 1	 99	 0.0	 0.0	 0.0	 0.0	 0.0	 0.0	 0.0	 0.0	 0.0	 0.0	 0.0	 18.0; % NG
	180	 0.0	 0.0	 4.0	 -4.0	 1.0	 4.0	 0	 8	 0.0	 0.0	 0.0	 0.0	 0.0	 0.0	 0.0	 0.0	 0.0	 0.0	 0.0	 277.0; % COW
	183	 171.25	 0.0	 262.8	 -262.8	 1.0	 253.76	 1	 275	 67.5	 0.0	 0.0	 0.0	 0.0	 0.0	 0.0	 0.0	 0.0	 0.0	 0.0	 205.0; % NG
	184	 0.0	 0.0	 141.0	 -141.0	 1.0	 222.0	 0	 282	 45.0	 0.0	 0.0	 0.0	 0.0	 0.0	 0.0	 0.0	 0.0	 0.0	 0.0	 222.0; % NG
	184	 0.0	 0.0	 68.33	 -68.33	 1.0	 205.0	 0	 14	 135.0	 0.0	 0.0	 0.0	 0.0	 0.0	 0.0	 0.0	 0.0	 0.0	 0.0	 205.0; % NG
	184	 166.0	 0.0	 252.0	 -252.0	 1.0	 232.0	 1	 282	 50.0	 0.0	 0.0	 0.0	 0.0	 0.0	 0.0	 0.0	 0.0	 0.0	 0.0	 232.0; % NG
	185	 140.5	 0.0	 631.2	 -631.2	 1.0	 268.92	 1	 236	 45.0	 0.0	 0.0	 0.0	 0.0	 0.0	 0.0	 0.0	 0.0	 0.0	 0.0	 250.434; % NG
	186	 0.0	 0.0	 77.33	 -77.33	 1.0	 232.0	 0	 50	 100.0	 0.0	 0.0	 0.0	 0.0	 0.0	 0.0	 0.0	 0.0	 0.0	 0.0	 232.0; % NG
	186	 154.5	 0.0	 132.0	 -132.0	 1.0	 268.92	 1	 264	 45.0	 0.0	 0.0	 0.0	 0.0	 0.0	 0.0	 0.0	 0.0	 0.0	 0.0	 250.0; % NG
	187	 944.465	 0.0	 793.0	 -793.0	 1.0	 100.0	 1	 1585	 303.93	 0.0	 0.0	 0.0	 0.0	 0.0	 0.0	 0.0	 0.0	 0.0	 0.0	 1241.4449; % COW
	199	 152.0	 0.0	 130.0	 -130.0	 1.0	 222.0	 1	 259	 45.0	 0.0	 0.0	 0.0	 0.0	 0.0	 0.0	 0.0	 0.0	 0.0	 0.0	 222.0; % NG
	205	 59.52	 11.0	 193.0	 -171.0	 1.0	 4.0	 1	 118	 1.04	 0.0	 0.0	 0.0	 0.0	 0.0	 0.0	 0.0	 0.0	 0.0	 0.0	 297.0; % COW
	205	 0.0	 0.0	 37.0	 -37.0	 1.0	 100.0	 0	 73	 6.655	 0.0	 0.0	 0.0	 0.0	 0.0	 0.0	 0.0	 0.0	 0.0	 0.0	 28.315; % NG
	206	 0.0	 0.0	 73.0	 -73.0	 1.0	 100.0	 0	 146	 9.86	 0.0	 0.0	 0.0	 0.0	 0.0	 0.0	 0.0	 0.0	 0.0	 0.0	 34.719; % NG
	210	 40.625	 13.0	 194.0	 -168.0	 1.0	 6.0	 1	 80	 1.25	 0.0	 0.0	 0.0	 0.0	 0.0	 0.0	 0.0	 0.0	 0.0	 0.0	 258.0; % NG
	222	 44.0	 7.5	 192.0	 -177.0	 1.0	 26.0	 1	 88	 0.0	 0.0	 0.0	 0.0	 0.0	 0.0	 0.0	 0.0	 0.0	 0.0	 0.0	 26.0; % NG
	222	 0.0	 0.0	 76.0	 -76.0	 1.0	 100.0	 0	 151	 0.135	 0.0	 0.0	 0.0	 0.0	 0.0	 0.0	 0.0	 0.0	 0.0	 0.0	 273.0; % NG
	226	 108.5	 13.5	 198.0	 -171.0	 1.0	 2.0	 1	 217	 0.0	 0.0	 0.0	 0.0	 0.0	 0.0	 0.0	 0.0	 0.0	 0.0	 0.0	 261.0; % NG
	227	 62.5	 8.0	 188.0	 -172.0	 1.0	 50.0	 1	 125	 0.0	 0.0	 0.0	 0.0	 0.0	 0.0	 0.0	 0.0	 0.0	 0.0	 0.0	 50.0; % NG
	230	 69.0	 -2.0	 179.0	 -183.0	 1.0	 108.13	 1	 138	 0.0	 0.0	 0.0	 0.0	 0.0	 0.0	 0.0	 0.0	 0.0	 0.0	 0.0	 254.0; % NG
	237	 0.0	 0.0	 65.0	 -65.0	 1.0	 71.2	 0	 130	 0.0	 0.0	 0.0	 0.0	 0.0	 0.0	 0.0	 0.0	 0.0	 0.0	 0.0	 45.15; % NG
	237	 0.0	 0.0	 124.0	 -124.0	 1.0	 71.2	 0	 248	 0.0	 0.0	 0.0	 0.0	 0.0	 0.0	 0.0	 0.0	 0.0	 0.0	 0.0	 45.15; % NG
	248	 0.0	 0.0	 45.0	 -45.0	 1.0	 100.0	 0	 90	 4.175	 0.0	 0.0	 0.0	 0.0	 0.0	 0.0	 0.0	 0.0	 0.0	 0.0	 298.0; % NG
	271	 80.14	 0.0	 76.0	 -76.0	 1.0	 100.0	 1	 152	 8.28	 0.0	 0.0	 0.0	 0.0	 0.0	 0.0	 0.0	 0.0	 0.0	 0.0	 50.412; % NG
	275	 101.96	 0.0	 80.0	 -80.0	 1.0	 100.0	 1	 159	 44.92	 0.0	 0.0	 0.0	 0.0	 0.0	 0.0	 0.0	 0.0	 0.0	 0.0	 146.284; % NG
	278	 46.9375	 0.0	 45.0	 -45.0	 1.0	 100.0	 1	 89	 4.875	 0.0	 0.0	 0.0	 0.0	 0.0	 0.0	 0.0	 0.0	 0.0	 0.0	 26.697; % PEL
	280	 0.0	 0.0	 42.0	 -42.0	 1.0	 71.2	 0	 84	 0.0	 0.0	 0.0	 0.0	 0.0	 0.0	 0.0	 0.0	 0.0	 0.0	 0.0	 45.15; % NG
	280	 0.0	 0.0	 195.0	 -195.0	 1.0	 71.2	 0	 389	 0.0	 0.0	 0.0	 0.0	 0.0	 0.0	 0.0	 0.0	 0.0	 0.0	 0.0	 45.15; % NG
	281	 66.325	 68.0	 198.0	 -62.0	 1.0	 100.0	 1	 123	 9.65	 0.0	 0.0	 0.0	 0.0	 0.0	 0.0	 0.0	 0.0	 0.0	 0.0	 64.187; % PEL
	296	 365.0825	 0.0	 282.0	 -282.0	 1.0	 600.0	 1	 563	 167.165	 0.0	 0.0	 0.0	 0.0	 0.0	 0.0	 0.0	 0.0	 0.0	 0.0	 825.299; % COW
	296	 282.285	 0.0	 197.0	 -197.0	 1.0	 600.0	 1	 393	 171.57	 0.0	 0.0	 0.0	 0.0	 0.0	 0.0	 0.0	 0.0	 0.0	 0.0	 846.641; % COW
	309	 0.0	 0.0	 129.0	 -129.0	 1.0	 130.0	 0	 258	 14.25	 0.0	 0.0	 0.0	 0.0	 0.0	 0.0	 0.0	 0.0	 0.0	 0.0	 158.49; % NG
	309	 0.0	 0.0	 135.0	 -135.0	 1.0	 130.0	 0	 270	 14.25	 0.0	 0.0	 0.0	 0.0	 0.0	 0.0	 0.0	 0.0	 0.0	 0.0	 156.39; % COW
	315	 0.0	 0.0	 61.0	 -61.0	 1.0	 71.2	 0	 122	 0.0	 0.0	 0.0	 0.0	 0.0	 0.0	 0.0	 0.0	 0.0	 0.0	 0.0	 45.15; % NG
	315	 0.0	 0.0	 69.0	 -69.0	 1.0	 71.2	 0	 138	 0.0	 0.0	 0.0	 0.0	 0.0	 0.0	 0.0	 0.0	 0.0	 0.0	 0.0	 45.15; % NG
	326	 86.5	 49.5	 180.0	 -81.0	 1.0	 100.0	 1	 162	 11.0	 0.0	 0.0	 0.0	 0.0	 0.0	 0.0	 0.0	 0.0	 0.0	 0.0	 41.398; % COW
	352	 0.0	 0.0	 42.0	 -42.0	 1.0	 57.0	 0	 83	 25.65	 0.0	 0.0	 0.0	 0.0	 0.0	 0.0	 0.0	 0.0	 0.0	 0.0	 66.3; % PEL
	352	 0.0	 0.0	 70.0	 -70.0	 1.0	 57.0	 0	 140	 24.7	 0.0	 0.0	 0.0	 0.0	 0.0	 0.0	 0.0	 0.0	 0.0	 0.0	 64.4; % NG
	353	 0.0	 0.0	 42.0	 -42.0	 1.0	 100.0	 0	 83	 5.33	 0.0	 0.0	 0.0	 0.0	 0.0	 0.0	 0.0	 0.0	 0.0	 0.0	 25.66; % PEL
	355	 0.0	 0.0	 72.0	 -72.0	 1.0	 23.0	 0	 143	 8.55	 0.0	 0.0	 0.0	 0.0	 0.0	 0.0	 0.0	 0.0	 0.0	 0.0	 32.1; % NG
	355	 0.0	 0.0	 59.0	 -59.0	 1.0	 23.0	 0	 118	 8.55	 0.0	 0.0	 0.0	 0.0	 0.0	 0.0	 0.0	 0.0	 0.0	 0.0	 32.1; % NG
	356	 0.0	 0.0	 51.33	 -51.33	 1.0	 154.0	 0	 101	 0.0	 0.0	 0.0	 0.0	 0.0	 0.0	 0.0	 0.0	 0.0	 0.0	 0.0	 267.0; % NG
	359	 0.0	 0.0	 122.0	 -122.0	 1.0	 23.0	 0	 243	 9.025	 0.0	 0.0	 0.0	 0.0	 0.0	 0.0	 0.0	 0.0	 0.0	 0.0	 33.05; % PEL
	359	 0.0	 0.0	 13.0	 -13.0	 1.0	 23.0	 0	 25	 8.55	 0.0	 0.0	 0.0	 0.0	 0.0	 0.0	 0.0	 0.0	 0.0	 0.0	 32.1; % NG
	361	 46.0	 9.5	 199.0	 -180.0	 1.0	 100.0	 1	 92	 0.0	 0.0	 0.0	 0.0	 0.0	 0.0	 0.0	 0.0	 0.0	 0.0	 0.0	 280.0; % NG
	361	 16.1875	 91.5	 198.0	 -15.0	 1.0	 71.0	 1	 30	 2.375	 0.0	 0.0	 0.0	 0.0	 0.0	 0.0	 0.0	 0.0	 0.0	 0.0	 19.75; % PEL
	361	 0.0	 0.0	 177.0	 -177.0	 1.0	 4.0	 0	 353	 0.57	 0.0	 0.0	 0.0	 0.0	 0.0	 0.0	 0.0	 0.0	 0.0	 0.0	 264.0; % COW
	362	 149.7075	 31.5	 197.0	 -134.0	 1.0	 100.0	 1	 267	 32.415	 0.0	 0.0	 0.0	 0.0	 0.0	 0.0	 0.0	 0.0	 0.0	 0.0	 92.796; % NG
	364	 0.0	 0.0	 31.0	 -31.0	 1.0	 57.0	 0	 62	 25.65	 0.0	 0.0	 0.0	 0.0	 0.0	 0.0	 0.0	 0.0	 0.0	 0.0	 66.3; % NG
	364	 0.0	 0.0	 19.0	 -19.0	 1.0	 57.0	 0	 2	 46.55	 0.0	 0.0	 0.0	 0.0	 0.0	 0.0	 0.0	 0.0	 0.0	 0.0	 61.55; % NG
	365	 0.0	 0.0	 84.0	 -84.0	 1.0	 100.0	 0	 167	 0.71	 0.0	 0.0	 0.0	 0.0	 0.0	 0.0	 0.0	 0.0	 0.0	 0.0	 251.0; % NG
	365	 104.2825	 46.0	 195.0	 -103.0	 1.0	 100.0	 1	 206	 2.565	 0.0	 0.0	 0.0	 0.0	 0.0	 0.0	 0.0	 0.0	 0.0	 0.0	 273.0; % NG
	366	 253.3175	 0.0	 221.0	 -221.0	 1.0	 100.0	 1	 441	 65.635	 0.0	 0.0	 0.0	 0.0	 0.0	 0.0	 0.0	 0.0	 0.0	 0.0	 196.904; % NG
	368	 118.0425	 48.0	 199.0	 -103.0	 1.0	 100.0	 1	 206	 30.085	 0.0	 0.0	 0.0	 0.0	 0.0	 0.0	 0.0	 0.0	 0.0	 0.0	 87.208; % NG
	369	 0.0	 0.0	 197.0	 -197.0	 1.0	 30.0	 0	 394	 11.4	 0.0	 0.0	 0.0	 0.0	 0.0	 0.0	 0.0	 0.0	 0.0	 0.0	 37.8; % NG
	369	 0.0	 0.0	 57.0	 -57.0	 1.0	 30.0	 0	 113	 11.4	 0.0	 0.0	 0.0	 0.0	 0.0	 0.0	 0.0	 0.0	 0.0	 0.0	 37.8; % PEL
	371	 0.0	 0.0	 57.0	 -57.0	 1.0	 23.0	 0	 113	 8.55	 0.0	 0.0	 0.0	 0.0	 0.0	 0.0	 0.0	 0.0	 0.0	 0.0	 32.1; % NG
	371	 0.0	 0.0	 9.0	 -9.0	 1.0	 23.0	 0	 17	 8.55	 0.0	 0.0	 0.0	 0.0	 0.0	 0.0	 0.0	 0.0	 0.0	 0.0	 32.1; % NG
	375	 0.0	 0.0	 33.33	 -33.33	 1.0	 100.0	 0	 34	 124.83	 0.0	 0.0	 0.0	 0.0	 0.0	 0.0	 0.0	 0.0	 0.0	 0.0	 139.826; % NG
	382	 0.0	 0.0	 46.67	 -46.67	 1.0	 140.0	 0	 10	 0.0	 0.0	 0.0	 0.0	 0.0	 0.0	 0.0	 0.0	 0.0	 0.0	 0.0	 281.0; % NG
	385	 103.7225	 0.0	 97.0	 -97.0	 1.0	 100.0	 1	 194	 13.445	 0.0	 0.0	 0.0	 0.0	 0.0	 0.0	 0.0	 0.0	 0.0	 0.0	 47.263; % NG
	388	 0.0	 0.0	 16.0	 -16.0	 1.0	 30.0	 0	 31	 10.45	 0.0	 0.0	 0.0	 0.0	 0.0	 0.0	 0.0	 0.0	 0.0	 0.0	 35.9; % NG
	388	 0.0	 0.0	 10.0	 -10.0	 1.0	 30.0	 0	 5	 21.85	 0.0	 0.0	 0.0	 0.0	 0.0	 0.0	 0.0	 0.0	 0.0	 0.0	 36.85; % PEL
	390	 459.285	 0.0	 343.0	 -343.0	 1.0	 100.0	 1	 686	 232.57	 0.0	 0.0	 0.0	 0.0	 0.0	 0.0	 0.0	 0.0	 0.0	 0.0	 697.71; % COW
	395	 533.1025	 0.0	 480.0	 -480.0	 1.0	 100.0	 1	 959	 107.205	 0.0	 0.0	 0.0	 0.0	 0.0	 0.0	 0.0	 0.0	 0.0	 0.0	 321.615; % COW
	398	 0.0	 0.0	 35.0	 -35.0	 1.0	 23.0	 0	 70	 8.55	 0.0	 0.0	 0.0	 0.0	 0.0	 0.0	 0.0	 0.0	 0.0	 0.0	 32.1; % NG
	398	 0.0	 0.0	 7.67	 -7.67	 1.0	 23.0	 0	 1	 18.05	 0.0	 0.0	 0.0	 0.0	 0.0	 0.0	 0.0	 0.0	 0.0	 0.0	 33.05; % PEL
	400	 0.0	 0.0	 66.67	 -66.67	 1.0	 200.0	 0	 102	 70.3	 0.0	 0.0	 0.0	 0.0	 0.0	 0.0	 0.0	 0.0	 0.0	 0.0	 155.4; % NG
	401	 0.0	 0.0	 96.0	 -96.0	 1.0	 154.0	 0	 191	 0.0	 0.0	 0.0	 0.0	 0.0	 0.0	 0.0	 0.0	 0.0	 0.0	 0.0	 271.0; % NG
	407	 0.0	 0.0	 50.0	 -50.0	 1.0	 150.0	 0	 67	 242.25	 0.0	 0.0	 0.0	 0.0	 0.0	 0.0	 0.0	 0.0	 0.0	 0.0	 294.0; % NG
	411	 90.0	 9.0	 190.0	 -172.0	 1.0	 100.0	 1	 180	 0.0	 0.0	 0.0	 0.0	 0.0	 0.0	 0.0	 0.0	 0.0	 0.0	 0.0	 286.0; % NG
	414	 416.86	 0.0	 345.0	 -345.0	 1.0	 100.0	 1	 690	 143.72	 0.0	 0.0	 0.0	 0.0	 0.0	 0.0	 0.0	 0.0	 0.0	 0.0	 431.167; % COW
	422	 96.4225	 0.0	 134.4	 -134.4	 1.0	 100.0	 1	 175	 17.845	 0.0	 0.0	 0.0	 0.0	 0.0	 0.0	 0.0	 0.0	 0.0	 0.0	 65.268; % PEL
	423	 126.0	 0.0	 109.0	 -109.0	 1.0	 163.45	 1	 217	 35.0	 0.0	 0.0	 0.0	 0.0	 0.0	 0.0	 0.0	 0.0	 0.0	 0.0	 143.75; % COW
	424	 157.5	 0.0	 140.0	 -140.0	 1.0	 148.19	 1	 280	 35.0	 0.0	 0.0	 0.0	 0.0	 0.0	 0.0	 0.0	 0.0	 0.0	 0.0	 143.75; % NG
	424	 0.0	 0.0	 33.33	 -33.33	 1.0	 100.0	 0	 10	 6.55	 0.0	 0.0	 0.0	 0.0	 0.0	 0.0	 0.0	 0.0	 0.0	 0.0	 28.104; % NG
	440	 321.0	 0.0	 313.0	 -313.0	 1.0	 147.7	 1	 626	 16.0	 0.0	 0.0	 0.0	 0.0	 0.0	 0.0	 0.0	 0.0	 0.0	 0.0	 137.5; % COW
	441	 0.0	 0.0	 37.67	 -37.67	 1.0	 113.0	 0	 3	 32.0	 0.0	 0.0	 0.0	 0.0	 0.0	 0.0	 0.0	 0.0	 0.0	 0.0	 113.0; % NG
	445	 0.0	 0.0	 45.0	 -45.0	 1.0	 135.0	 0	 29	 17.5	 0.0	 0.0	 0.0	 0.0	 0.0	 0.0	 0.0	 0.0	 0.0	 0.0	 135.0; % NG
	455	 0.0	 0.0	 20.0	 -20.0	 1.0	 25.0	 0	 39	 5.0	 0.0	 0.0	 0.0	 0.0	 0.0	 0.0	 0.0	 0.0	 0.0	 0.0	 25.0; % NG
	455	 0.0	 0.0	 68.0	 -68.0	 1.0	 25.0	 0	 135	 5.0	 0.0	 0.0	 0.0	 0.0	 0.0	 0.0	 0.0	 0.0	 0.0	 0.0	 25.0; % COW
	455	 38.5	 5.5	 179.0	 -168.0	 1.0	 30.0	 1	 72	 5.0	 0.0	 0.0	 0.0	 0.0	 0.0	 0.0	 0.0	 0.0	 0.0	 0.0	 31.25; % NG
	455	 155.0	 5.0	 192.0	 -182.0	 1.0	 25.0	 1	 305	 5.0	 0.0	 0.0	 0.0	 0.0	 0.0	 0.0	 0.0	 0.0	 0.0	 0.0	 25.0; % NG
	457	 0.0	 0.0	 115.0	 -115.0	 1.0	 100.0	 0	 230	 1.2	 0.0	 0.0	 0.0	 0.0	 0.0	 0.0	 0.0	 0.0	 0.0	 0.0	 259.0; % NG
	458	 0.0	 0.0	 57.0	 -57.0	 1.0	 50.0	 0	 114	 5.0	 0.0	 0.0	 0.0	 0.0	 0.0	 0.0	 0.0	 0.0	 0.0	 0.0	 50.0; % NG
	475	 104.5	 0.0	 87.0	 -87.0	 1.0	 120.0	 1	 174	 35.0	 0.0	 0.0	 0.0	 0.0	 0.0	 0.0	 0.0	 0.0	 0.0	 0.0	 120.0; % NG
	475	 71.5825	 8.0	 73.0	 -57.0	 1.0	 120.0	 1	 114	 29.165	 0.0	 0.0	 0.0	 0.0	 0.0	 0.0	 0.0	 0.0	 0.0	 0.0	 120.0; % NG
	476	 136.53	 0.0	 112.0	 -112.0	 1.0	 144.0	 1	 223	 50.06	 0.0	 0.0	 0.0	 0.0	 0.0	 0.0	 0.0	 0.0	 0.0	 0.0	 254.988; % NG
	476	 0.0	 0.0	 127.0	 -127.0	 1.0	 110.0	 0	 254	 39.5	 0.0	 0.0	 0.0	 0.0	 0.0	 0.0	 0.0	 0.0	 0.0	 0.0	 110.0; % COW
	480	 0.0	 0.0	 33.33	 -33.33	 1.0	 100.0	 0	 2	 47.47	 0.0	 0.0	 0.0	 0.0	 0.0	 0.0	 0.0	 0.0	 0.0	 0.0	 62.466; % NG
	483	 0.0	 0.0	 88.0	 -88.0	 1.0	 100.0	 0	 175	 4.135	 0.0	 0.0	 0.0	 0.0	 0.0	 0.0	 0.0	 0.0	 0.0	 0.0	 259.0; % NG
	514	 132.16	 0.0	 132.0	 -132.0	 1.0	 100.0	 1	 263	 1.32	 0.0	 0.0	 0.0	 0.0	 0.0	 0.0	 0.0	 0.0	 0.0	 0.0	 79.663; % NG
	545	 0.0	 0.0	 123.33	 -123.33	 1.0	 370.0	 0	 232	 120.0	 0.0	 0.0	 0.0	 0.0	 0.0	 0.0	 0.0	 0.0	 0.0	 0.0	 370.0; % COW
	545	 0.0	 0.0	 123.33	 -123.33	 1.0	 370.0	 0	 108	 240.0	 0.0	 0.0	 0.0	 0.0	 0.0	 0.0	 0.0	 0.0	 0.0	 0.0	 370.0; % NG
	545	 800.0	 0.0	 740.0	 -740.0	 1.0	 449.45	 1	 1480	 120.0	 0.0	 0.0	 0.0	 0.0	 0.0	 0.0	 0.0	 0.0	 0.0	 0.0	 431.25; % COW
	546	 268.5	 0.0	 209.0	 -209.0	 1.0	 455.56	 1	 417	 120.0	 0.0	 0.0	 0.0	 0.0	 0.0	 0.0	 0.0	 0.0	 0.0	 0.0	 462.5; % NG
	546	 284.0	 0.0	 224.0	 -224.0	 1.0	 397.31	 1	 448	 120.0	 0.0	 0.0	 0.0	 0.0	 0.0	 0.0	 0.0	 0.0	 0.0	 0.0	 370.0; % NG
	547	 497.445	 0.0	 409.0	 -409.0	 1.0	 616.84	 1	 818	 176.89	 0.0	 0.0	 0.0	 0.0	 0.0	 0.0	 0.0	 0.0	 0.0	 0.0	 1090.993; % COW
	547	 359.945	 0.0	 272.0	 -272.0	 1.0	 616.84	 1	 543	 176.89	 0.0	 0.0	 0.0	 0.0	 0.0	 0.0	 0.0	 0.0	 0.0	 0.0	 1090.993; % NG
	547	 522.945	 0.0	 435.0	 -435.0	 1.0	 616.84	 1	 869	 176.89	 0.0	 0.0	 0.0	 0.0	 0.0	 0.0	 0.0	 0.0	 0.0	 0.0	 1090.993; % NUC
	548	 525.5	 0.0	 466.0	 -466.0	 1.0	 451.84	 1	 931	 120.0	 0.0	 0.0	 0.0	 0.0	 0.0	 0.0	 0.0	 0.0	 0.0	 0.0	 462.5; % COW
	548	 279.5	 0.0	 220.0	 -220.0	 1.0	 416.51	 1	 439	 120.0	 0.0	 0.0	 0.0	 0.0	 0.0	 0.0	 0.0	 0.0	 0.0	 0.0	 425.0; % NG
	548	 289.5	 0.0	 230.0	 -230.0	 1.0	 416.51	 1	 459	 120.0	 0.0	 0.0	 0.0	 0.0	 0.0	 0.0	 0.0	 0.0	 0.0	 0.0	 425.0; % NG
	557	 136.975	 0.0	 260.4	 -260.4	 1.0	 100.0	 1	 232	 41.95	 0.0	 0.0	 0.0	 0.0	 0.0	 0.0	 0.0	 0.0	 0.0	 0.0	 156.952; % NG
	560	 488.9175	 0.0	 466.0	 -466.0	 1.0	 166.81	 1	 932	 45.835	 0.0	 0.0	 0.0	 0.0	 0.0	 0.0	 0.0	 0.0	 0.0	 0.0	 137.5; % COW
	560	 0.0	 0.0	 40.0	 -40.0	 1.0	 120.0	 0	 52	 50.0	 0.0	 0.0	 0.0	 0.0	 0.0	 0.0	 0.0	 0.0	 0.0	 0.0	 120.0; % NG
	570	 405.0	 0.0	 345.0	 -345.0	 1.0	 477.9	 1	 690	 120.0	 0.0	 0.0	 0.0	 0.0	 0.0	 0.0	 0.0	 0.0	 0.0	 0.0	 437.5; % NG
	574	 48.0	 0.0	 179.0	 -179.0	 1.0	 30.0	 1	 96	 0.0	 0.0	 0.0	 0.0	 0.0	 0.0	 0.0	 0.0	 0.0	 0.0	 0.0	 30.0; % COW
	580	 43.5	 -2.0	 178.0	 -182.0	 1.0	 0.43	 1	 87	 0.0	 0.0	 0.0	 0.0	 0.0	 0.0	 0.0	 0.0	 0.0	 0.0	 0.0	 261.0; % NG
];

%% generator cost data
%	2	startup	shutdown	n	c(n-1)	...	c0
mpc.gencost = [
	2	 0.0	 0.0	 3	   0.000000	  23.535653	   0.000000; % NG
	2	 0.0	 0.0	 3	   0.000000	  27.465020	   0.000000; % NG
	2	 0.0	 0.0	 3	   0.000000	  34.227800	   0.000000; % NG
	2	 0.0	 0.0	 3	   0.000000	  36.624241	   0.000000; % NG
	2	 0.0	 0.0	 3	   0.000000	  48.190116	   0.000000; % COW
	2	 0.0	 0.0	 3	   0.000000	  37.933947	   0.000000; % NG
	2	 0.0	 0.0	 3	   0.000000	  12.156093	   0.000000; % NG
	2	 0.0	 0.0	 3	   0.000000	  36.057882	   0.000000; % COW
	2	 0.0	 0.0	 3	   0.000000	  46.037465	   0.000000; % NG
	2	 0.0	 0.0	 3	   0.000000	  18.648445	   0.000000; % NG
	2	 0.0	 0.0	 3	   0.000000	  47.503236	   0.000000; % NG
	2	 0.0	 0.0	 3	   0.000000	 103.913889	   0.000000; % NG
	2	 0.0	 0.0	 3	   0.000000	  41.991113	   0.000000; % PEL
	2	 0.0	 0.0	 3	   0.000000	  33.415433	   0.000000; % NG
	2	 0.0	 0.0	 3	   0.000000	  26.331314	   0.000000; % COW
	2	 0.0	 0.0	 3	   0.000000	  41.212053	   0.000000; % NG
	2	 0.0	 0.0	 3	   0.000000	  37.964524	   0.000000; % NG
	2	 0.0	 0.0	 3	   0.000000	  28.621957	   0.000000; % NG
	2	 0.0	 0.0	 3	   0.000000	  24.735716	   0.000000; % NG
	2	 0.0	 0.0	 3	   0.000000	  30.362388	   0.000000; % NG
	2	 0.0	 0.0	 3	   0.000000	  38.096425	   0.000000; % COW
	2	 0.0	 0.0	 3	   0.000000	  39.564385	   0.000000; % NG
	2	 0.0	 0.0	 3	   0.000000	  48.503408	   0.000000; % NG
	2	 0.0	 0.0	 3	   0.000000	  36.698208	   0.000000; % NG
	2	 0.0	 0.0	 3	   0.000000	  29.832915	   0.000000; % NG
	2	 0.0	 0.0	 3	   0.000000	  19.462995	   0.000000; % COW
	2	 0.0	 0.0	 3	   0.000000	  24.670298	   0.000000; % NG
	2	 0.0	 0.0	 3	   0.000000	  42.514759	   0.000000; % COW
	2	 0.0	 0.0	 3	   0.000000	  19.631594	   0.000000; % NG
	2	 0.0	 0.0	 3	   0.000000	  44.491363	   0.000000; % NG
	2	 0.0	 0.0	 3	   0.000000	  28.563386	   0.000000; % NG
	2	 0.0	 0.0	 3	   0.000000	  44.314937	   0.000000; % NG
	2	 0.0	 0.0	 3	   0.000000	  30.863210	   0.000000; % NG
	2	 0.0	 0.0	 3	   0.000000	 122.118278	   0.000000; % NG
	2	 0.0	 0.0	 3	   0.000000	  42.045828	   0.000000; % COW
	2	 0.0	 0.0	 3	   0.000000	  19.858774	   0.000000; % NG
	2	 0.0	 0.0	 3	   0.000000	 100.342657	   0.000000; % NG
	2	 0.0	 0.0	 3	   0.000000	   6.557863	   0.000000; % NG
	2	 0.0	 0.0	 3	   0.000000	  32.124894	   0.000000; % COW
	2	 0.0	 0.0	 3	   0.000000	 120.383376	   0.000000; % NG
	2	 0.0	 0.0	 3	   0.000000	  53.898136	   0.000000; % NG
	2	 0.0	 0.0	 3	   0.000000	  30.442230	   0.000000; % COW
	2	 0.0	 0.0	 3	   0.000000	  42.752811	   0.000000; % PEL
	2	 0.0	 0.0	 3	   0.000000	  27.829351	   0.000000; % NG
	2	 0.0	 0.0	 3	   0.000000	  25.900149	   0.000000; % NG
	2	 0.0	 0.0	 3	   0.000000	  53.631717	   0.000000; % PEL
	2	 0.0	 0.0	 3	   0.000000	 101.198461	   0.000000; % NG
	2	 0.0	 0.0	 3	   0.000000	  34.466152	   0.000000; % COW
	2	 0.0	 0.0	 3	   0.000000	  28.732147	   0.000000; % PEL
	2	 0.0	 0.0	 3	   0.000000	 105.178409	   0.000000; % NG
	2	 0.0	 0.0	 3	   0.000000	 122.503134	   0.000000; % NG
	2	 0.0	 0.0	 3	   0.000000	 106.414426	   0.000000; % PEL
	2	 0.0	 0.0	 3	   0.000000	  27.620251	   0.000000; % COW
	2	 0.0	 0.0	 3	   0.000000	  18.242351	   0.000000; % NG
	2	 0.0	 0.0	 3	   0.000000	  46.958162	   0.000000; % NG
	2	 0.0	 0.0	 3	   0.000000	  39.610535	   0.000000; % NG
	2	 0.0	 0.0	 3	   0.000000	  44.894446	   0.000000; % COW
	2	 0.0	 0.0	 3	   0.000000	  38.935936	   0.000000; % NG
	2	 0.0	 0.0	 3	   0.000000	  42.471508	   0.000000; % NG
	2	 0.0	 0.0	 3	   0.000000	  46.458114	   0.000000; % COW
	2	 0.0	 0.0	 3	   0.000000	  10.435412	   0.000000; % NG
	2	 0.0	 0.0	 3	   0.000000	  36.140449	   0.000000; % NG
	2	 0.0	 0.0	 3	   0.000000	  31.930638	   0.000000; % NG
	2	 0.0	 0.0	 3	   0.000000	  27.846608	   0.000000; % NG
	2	 0.0	 0.0	 3	   0.000000	  40.609265	   0.000000; % NG
	2	 0.0	 0.0	 3	   0.000000	  28.147333	   0.000000; % NG
	2	 0.0	 0.0	 3	   0.000000	  29.951893	   0.000000; % NG
	2	 0.0	 0.0	 3	   0.000000	 116.999725	   0.000000; % COW
	2	 0.0	 0.0	 3	   0.000000	  27.759506	   0.000000; % NG
	2	 0.0	 0.0	 3	   0.000000	  21.238147	   0.000000; % COW
	2	 0.0	 0.0	 3	   0.000000	  49.419174	   0.000000; % NG
	2	 0.0	 0.0	 3	   0.000000	 125.142988	   0.000000; % NG
	2	 0.0	 0.0	 3	   0.000000	  33.921676	   0.000000; % NG
	2	 0.0	 0.0	 3	   0.000000	  34.799871	   0.000000; % NG
	2	 0.0	 0.0	 3	   0.000000	  28.781280	   0.000000; % NG
	2	 0.0	 0.0	 3	   0.000000	  37.793750	   0.000000; % NG
	2	 0.0	 0.0	 3	   0.000000	  26.464892	   0.000000; % NG
	2	 0.0	 0.0	 3	   0.000000	  40.321490	   0.000000; % NG
	2	 0.0	 0.0	 3	   0.000000	  36.682954	   0.000000; % NG
	2	 0.0	 0.0	 3	   0.000000	 118.446251	   0.000000; % NG
	2	 0.0	 0.0	 3	   0.000000	  19.891648	   0.000000; % NG
	2	 0.0	 0.0	 3	   0.000000	  46.939814	   0.000000; % NG
	2	 0.0	 0.0	 3	   0.000000	  20.609107	   0.000000; % NG
	2	 0.0	 0.0	 3	   0.000000	  51.946595	   0.000000; % PEL
	2	 0.0	 0.0	 3	   0.000000	 115.139292	   0.000000; % NG
	2	 0.0	 0.0	 3	   0.000000	  38.381776	   0.000000; % NG
	2	 0.0	 0.0	 3	   0.000000	  30.397232	   0.000000; % PEL
	2	 0.0	 0.0	 3	   0.000000	   7.117309	   0.000000; % COW
	2	 0.0	 0.0	 3	   0.000000	  41.974613	   0.000000; % COW
	2	 0.0	 0.0	 3	   0.000000	  27.925312	   0.000000; % NG
	2	 0.0	 0.0	 3	   0.000000	  42.081347	   0.000000; % COW
	2	 0.0	 0.0	 3	   0.000000	  40.432203	   0.000000; % NG
	2	 0.0	 0.0	 3	   0.000000	  43.532489	   0.000000; % NG
	2	 0.0	 0.0	 3	   0.000000	  53.881410	   0.000000; % COW
	2	 0.0	 0.0	 3	   0.000000	 103.633060	   0.000000; % PEL
	2	 0.0	 0.0	 3	   0.000000	  23.935594	   0.000000; % NG
	2	 0.0	 0.0	 3	   0.000000	 122.171437	   0.000000; % PEL
	2	 0.0	 0.0	 3	   0.000000	  63.266585	   0.000000; % NG
	2	 0.0	 0.0	 3	   0.000000	  49.915606	   0.000000; % NG
	2	 0.0	 0.0	 3	   0.000000	  27.676646	   0.000000; % NG
	2	 0.0	 0.0	 3	   0.000000	  20.363747	   0.000000; % PEL
	2	 0.0	 0.0	 3	   0.000000	  25.563811	   0.000000; % NG
	2	 0.0	 0.0	 3	   0.000000	  31.544193	   0.000000; % NG
	2	 0.0	 0.0	 3	   0.000000	 105.419125	   0.000000; % PEL
	2	 0.0	 0.0	 3	   0.000000	  45.262274	   0.000000; % COW
	2	 0.0	 0.0	 3	   0.000000	  45.018519	   0.000000; % NG
	2	 0.0	 0.0	 3	   0.000000	 123.633802	   0.000000; % NG
	2	 0.0	 0.0	 3	   0.000000	  33.598512	   0.000000; % NG
	2	 0.0	 0.0	 3	   0.000000	  40.290814	   0.000000; % NG
	2	 0.0	 0.0	 3	   0.000000	  45.715203	   0.000000; % NG
	2	 0.0	 0.0	 3	   0.000000	  41.700445	   0.000000; % NG
	2	 0.0	 0.0	 3	   0.000000	  31.832551	   0.000000; % NG
	2	 0.0	 0.0	 3	   0.000000	  34.637815	   0.000000; % NG
	2	 0.0	 0.0	 3	   0.000000	  38.244354	   0.000000; % PEL
	2	 0.0	 0.0	 3	   0.000000	  25.617682	   0.000000; % NG
	2	 0.0	 0.0	 3	   0.000000	  26.611750	   0.000000; % NG
	2	 0.0	 0.0	 3	   0.000000	  26.589244	   0.000000; % NG
	2	 0.0	 0.0	 3	   0.000000	  33.301644	   0.000000; % NG
	2	 0.0	 0.0	 3	   0.000000	  40.945757	   0.000000; % NG
	2	 0.0	 0.0	 3	   0.000000	   5.116384	   0.000000; % NG
	2	 0.0	 0.0	 3	   0.000000	  88.599633	   0.000000; % PEL
	2	 0.0	 0.0	 3	   0.000000	  33.247253	   0.000000; % COW
	2	 0.0	 0.0	 3	   0.000000	  36.486735	   0.000000; % COW
	2	 0.0	 0.0	 3	   0.000000	 105.413837	   0.000000; % NG
	2	 0.0	 0.0	 3	   0.000000	  48.960239	   0.000000; % PEL
	2	 0.0	 0.0	 3	   0.000000	   8.304805	   0.000000; % NG
	2	 0.0	 0.0	 3	   0.000000	  42.676707	   0.000000; % NG
	2	 0.0	 0.0	 3	   0.000000	  20.042020	   0.000000; % NG
	2	 0.0	 0.0	 3	   0.000000	  30.385882	   0.000000; % NG
	2	 0.0	 0.0	 3	   0.000000	  25.321525	   0.000000; % COW
	2	 0.0	 0.0	 3	   0.000000	  27.304206	   0.000000; % PEL
	2	 0.0	 0.0	 3	   0.000000	  25.284434	   0.000000; % COW
	2	 0.0	 0.0	 3	   0.000000	  31.276404	   0.000000; % NG
	2	 0.0	 0.0	 3	   0.000000	  37.279277	   0.000000; % NG
	2	 0.0	 0.0	 3	   0.000000	  46.781751	   0.000000; % COW
	2	 0.0	 0.0	 3	   0.000000	  33.671522	   0.000000; % NG
	2	 0.0	 0.0	 3	   0.000000	  19.543519	   0.000000; % NG
	2	 0.0	 0.0	 3	   0.000000	  39.300841	   0.000000; % NG
	2	 0.0	 0.0	 3	   0.000000	  24.508809	   0.000000; % COW
	2	 0.0	 0.0	 3	   0.000000	 102.118437	   0.000000; % NG
	2	 0.0	 0.0	 3	   0.000000	  25.764471	   0.000000; % NG
	2	 0.0	 0.0	 3	   0.000000	  24.735825	   0.000000; % NG
	2	 0.0	 0.0	 3	   0.000000	  29.483804	   0.000000; % NG
	2	 0.0	 0.0	 3	   0.000000	  17.836918	   0.000000; % NG
	2	 0.0	 0.0	 3	   0.000000	   6.191415	   0.000000; % NG
	2	 0.0	 0.0	 3	   0.000000	  20.535866	   0.000000; % NG
	2	 0.0	 0.0	 3	   0.000000	   9.033542	   0.000000; % COW
	2	 0.0	 0.0	 3	   0.000000	  31.037366	   0.000000; % NG
	2	 0.0	 0.0	 3	   0.000000	  26.150452	   0.000000; % NG
	2	 0.0	 0.0	 3	   0.000000	  35.879630	   0.000000; % NG
	2	 0.0	 0.0	 3	   0.000000	  42.884523	   0.000000; % COW
	2	 0.0	 0.0	 3	   0.000000	  25.752611	   0.000000; % NG
	2	 0.0	 0.0	 3	   0.000000	  30.263220	   0.000000; % COW
	2	 0.0	 0.0	 3	   0.000000	  36.168021	   0.000000; % NG
	2	 0.0	 0.0	 3	   0.000000	  34.641486	   0.000000; % NG
	2	 0.0	 0.0	 3	   0.000000	  39.185167	   0.000000; % COW
	2	 0.0	 0.0	 3	   0.000000	  15.657894	   0.000000; % NG
	2	 0.0	 0.0	 3	   0.000000	  25.598432	   0.000000; % NUC
	2	 0.0	 0.0	 3	   0.000000	  16.446303	   0.000000; % COW
	2	 0.0	 0.0	 3	   0.000000	  22.990680	   0.000000; % NG
	2	 0.0	 0.0	 3	   0.000000	  18.450031	   0.000000; % NG
	2	 0.0	 0.0	 3	   0.000000	  22.144604	   0.000000; % NG
	2	 0.0	 0.0	 3	   0.000000	  39.181255	   0.000000; % COW
	2	 0.0	 0.0	 3	   0.000000	  36.412829	   0.000000; % NG
	2	 0.0	 0.0	 3	   0.000000	  27.748868	   0.000000; % NG
	2	 0.0	 0.0	 3	   0.000000	 108.451788	   0.000000; % COW
	2	 0.0	 0.0	 3	   0.000000	  17.376283	   0.000000; % NG
];

%% branch data
%	fbus	tbus	r	x	b	rateA	rateB	rateC	ratio	angle	status	angmin	angmax
mpc.branch = [
	1	 10	 0.00186	 0.02155	 0.05317	 461.0	 461.0	 461.0	 0.0	 0.0	 1	 -30.0	 30.0;
	2	 3	 0.00051	 0.0275	 0.0	 400.0	 400.0	 400.0	 1.07702	 0.0	 1	 -30.0	 30.0;
	2	 17	 0.00568	 0.04215	 0.0716	 317.0	 317.0	 317.0	 0.0	 0.0	 1	 -30.0	 30.0;
	3	 14	 0.00131	 0.01547	 0.41152	 838.0	 838.0	 838.0	 0.0	 0.0	 1	 -30.0	 30.0;
	3	 70	 0.0001	 0.01	 0.0	 158.96	 190.75	 238.44	 0.0	 0.0	 1	 -30.0	 30.0;
	4	 5	 1e-05	 6e-05	 0.0	 1593.0	 1593.0	 1593.0	 0.0	 0.0	 1	 -30.0	 30.0;
	6	 4	 0.00084	 0.06858	 0.0	 250.0	 250.0	 250.0	 0.9999	 0.0	 1	 -30.0	 30.0;
	4	 65	 0.00033	 0.00388	 0.10475	 831.0	 831.0	 831.0	 0.0	 0.0	 1	 -30.0	 30.0;
	4	 77	 0.0001	 0.01	 0.0	 126.64	 151.97	 189.97	 0.0	 0.0	 1	 -30.0	 30.0;
	5	 12	 0.0024	 0.02795	 0.75408	 838.0	 838.0	 838.0	 0.0	 0.0	 1	 -30.0	 30.0;
	5	 16	 0.00133	 0.01553	 0.41898	 831.0	 831.0	 831.0	 0.0	 0.0	 1	 -30.0	 30.0;
	5	 68	 0.0001	 0.01	 0.0	 149.53	 179.43	 224.29	 0.0	 0.0	 1	 -30.0	 30.0;
	23	 6	 0.00044	 -0.00422	 0.0	 250.0	 250.0	 250.0	 1.06772	 0.0	 1	 -30.0	 30.0;
	24	 6	 0.00496	 0.06982	 0.0	 64.99	 84.49	 84.49	 0.98438	 0.0	 1	 -30.0	 30.0;
	7	 8	 2e-05	 0.00021	 0.0	 876.0	 876.0	 876.0	 0.0	 0.0	 1	 -30.0	 30.0;
	7	 10	 0.02738	 0.14254	 0.20047	 222.0	 222.0	 222.0	 0.0	 0.0	 1	 -30.0	 30.0;
	25	 7	 0.00015	 0.06524	 0.0	 160.0	 160.0	 160.0	 1.07325	 0.0	 1	 -30.0	 30.0;
	8	 17	 0.01909	 0.11277	 0.16673	 197.0	 197.0	 197.0	 0.0	 0.0	 1	 -30.0	 30.0;
	26	 8	 0.00027	 0.06715	 0.0	 160.0	 160.0	 160.0	 1.08282	 0.0	 1	 -30.0	 30.0;
	9	 10	 2e-05	 0.00021	 0.0	 876.0	 876.0	 876.0	 0.0	 0.0	 1	 -30.0	 30.0;
	9	 76	 0.0001	 0.01	 0.0	 83.7	 98.6	 125.55	 0.0	 0.0	 1	 -30.0	 30.0;
	11	 10	 0.00076	 0.0789	 0.0	 243.53	 316.58	 316.58	 0.9999	 0.0	 1	 -30.0	 30.0;
	10	 66	 0.0001	 0.01	 0.0	 83.7	 98.6	 125.55	 0.0	 0.0	 1	 -30.0	 30.0;
	33	 11	 -0.00017	 0.16709	 0.0	 260.0	 312.0	 390.0	 0.94157	 0.0	 1	 -30.0	 30.0;
	11	 75	 0.0001	 0.01	 0.0	 83.7	 98.6	 125.55	 0.0	 0.0	 1	 -30.0	 30.0;
	12	 69	 0.0001	 0.01	 0.0	 129.32	 155.19	 193.98	 0.0	 0.0	 1	 -30.0	 30.0;
	13	 14	 1e-05	 6e-05	 0.0	 1593.0	 1593.0	 1593.0	 0.0	 0.0	 1	 -30.0	 30.0;
	13	 15	 0.0015	 0.01768	 0.46944	 831.0	 831.0	 831.0	 0.0	 0.0	 1	 -30.0	 30.0;
	52	 13	 0.00059	 0.04206	 0.0	 330.0	 330.0	 330.0	 1.04877	 0.0	 1	 -30.0	 30.0;
	15	 16	 1e-05	 6e-05	 0.0	 1593.0	 1593.0	 1593.0	 0.0	 0.0	 1	 -30.0	 30.0;
	63	 15	 0.00137	 0.05969	 0.0	 250.0	 250.0	 250.0	 1.05449	 0.0	 1	 -30.0	 30.0;
	64	 15	 0.00137	 0.05969	 0.0	 250.0	 250.0	 250.0	 1.05312	 0.0	 1	 -30.0	 30.0;
	15	 65	 0.001	 0.01165	 0.31426	 831.0	 831.0	 831.0	 0.0	 0.0	 1	 -30.0	 30.0;
	18	 37	 0.021	 0.0679	 0.00696	 101.0	 101.0	 101.0	 0.0	 0.0	 1	 -30.0	 30.0;
	18	 63	 0.02139	 0.06954	 0.00729	 120.0	 120.0	 120.0	 0.0	 0.0	 1	 -30.0	 30.0;
	19	 20	 8e-05	 0.00083	 0.0	 438.0	 438.0	 438.0	 0.0	 0.0	 1	 -30.0	 30.0;
	19	 25	 0.03025	 0.09752	 0.01002	 86.0	 86.0	 86.0	 0.0	 0.0	 1	 -30.0	 30.0;
	19	 28	 0.00983	 0.01736	 0.0016	 137.0	 137.0	 137.0	 0.0	 0.0	 1	 -30.0	 30.0;
	19	 63	 0.03669	 0.11818	 0.01217	 123.0	 123.0	 123.0	 0.0	 0.0	 1	 -30.0	 30.0;
	20	 42	 0.00711	 0.02314	 0.00234	 124.0	 124.0	 124.0	 0.0	 0.0	 1	 -30.0	 30.0;
	20	 48	 0.00331	 0.01074	 0.00109	 137.0	 137.0	 137.0	 0.0	 0.0	 1	 -30.0	 30.0;
	21	 25	 0.01116	 0.01529	 0.00275	 114.0	 114.0	 114.0	 0.0	 0.0	 1	 -30.0	 30.0;
	21	 40	 0.01116	 0.01529	 0.00275	 114.0	 114.0	 114.0	 0.0	 0.0	 1	 -30.0	 30.0;
	22	 37	 0.0405	 0.07107	 0.00673	 59.55	 71.46	 89.33	 0.0	 0.0	 1	 -30.0	 30.0;
	22	 51	 0.04628	 0.07107	 0.0076	 67.92	 81.51	 101.88	 0.0	 0.0	 1	 -30.0	 30.0;
	23	 39	 0.00124	 0.00413	 0.00039	 128.0	 128.0	 128.0	 0.0	 0.0	 1	 -30.0	 30.0;
	23	 43	 0.00793	 0.02231	 0.00215	 123.0	 123.0	 123.0	 0.0	 0.0	 1	 -30.0	 30.0;
	23	 45	 0.00124	 0.00413	 0.00041	 170.12	 204.15	 255.18	 0.0	 0.0	 1	 -30.0	 30.0;
	23	 514	 0.0001	 0.01	 0.0	 229.86	 275.83	 344.79	 0.0	 0.0	 1	 -30.0	 30.0;
	25	 49	 0.00124	 0.00413	 0.00039	 128.0	 128.0	 128.0	 0.0	 0.0	 1	 -30.0	 30.0;
	25	 61	 0.01977	 0.06457	 0.00658	 123.0	 123.0	 123.0	 0.0	 0.0	 1	 -30.0	 30.0;
	25	 62	 0.00218	 0.00712	 0.00073	 123.0	 123.0	 123.0	 0.0	 0.0	 1	 -30.0	 30.0;
	26	 35	 0.0065	 0.02121	 0.00216	 123.0	 123.0	 123.0	 0.0	 0.0	 1	 -30.0	 30.0;
	26	 119	 0.0001	 0.01	 0.0	 170.58	 204.7	 255.87	 0.0	 0.0	 1	 -30.0	 30.0;
	27	 28	 8e-05	 0.00083	 0.0	 438.0	 438.0	 438.0	 0.0	 0.0	 1	 -30.0	 30.0;
	27	 32	 0.00124	 0.00413	 0.00039	 128.0	 128.0	 128.0	 0.0	 0.0	 1	 -30.0	 30.0;
	27	 56	 0.00099	 0.00347	 0.00036	 137.0	 137.0	 137.0	 0.0	 0.0	 1	 -30.0	 30.0;
	27	 61	 0.01083	 0.03471	 0.00358	 137.0	 137.0	 137.0	 0.0	 0.0	 1	 -30.0	 30.0;
	28	 31	 0.00496	 0.01273	 0.00128	 95.0	 95.0	 95.0	 0.0	 0.0	 1	 -30.0	 30.0;
	28	 55	 0.00124	 0.00413	 0.00039	 128.0	 128.0	 128.0	 0.0	 0.0	 1	 -30.0	 30.0;
	29	 30	 0.00142	 0.00465	 0.00047	 123.0	 123.0	 123.0	 0.0	 0.0	 1	 -30.0	 30.0;
	29	 58	 0.00408	 0.01332	 0.00136	 123.0	 123.0	 123.0	 0.0	 0.0	 1	 -30.0	 30.0;
	30	 64	 0.01705	 0.05552	 0.00567	 137.0	 137.0	 137.0	 0.0	 0.0	 1	 -30.0	 30.0;
	31	 46	 0.00372	 0.00934	 0.00094	 120.0	 120.0	 120.0	 0.0	 0.0	 1	 -30.0	 30.0;
	32	 55	 0.00124	 0.00413	 0.00039	 128.0	 128.0	 128.0	 0.0	 0.0	 1	 -30.0	 30.0;
	34	 62	 0.00133	 0.00434	 0.00044	 123.0	 123.0	 123.0	 0.0	 0.0	 1	 -30.0	 30.0;
	36	 42	 0.00289	 0.00926	 0.00094	 137.0	 137.0	 137.0	 0.0	 0.0	 1	 -30.0	 30.0;
	36	 56	 0.00207	 0.00694	 0.0007	 137.0	 137.0	 137.0	 0.0	 0.0	 1	 -30.0	 30.0;
	37	 38	 0.00413	 0.01372	 0.00138	 62.0	 62.0	 62.0	 0.0	 0.0	 1	 -30.0	 30.0;
	38	 60	 0.03438	 0.06099	 0.00569	 62.0	 62.0	 62.0	 0.0	 0.0	 1	 -30.0	 30.0;
	39	 40	 8e-05	 0.00083	 0.0	 438.0	 438.0	 438.0	 0.0	 0.0	 1	 -30.0	 30.0;
	39	 41	 0.00124	 0.00413	 0.00039	 128.0	 128.0	 128.0	 0.0	 0.0	 1	 -30.0	 30.0;
	40	 41	 0.00124	 0.00413	 0.00039	 128.0	 128.0	 128.0	 0.0	 0.0	 1	 -30.0	 30.0;
	44	 60	 0.0395	 0.1281	 0.01314	 62.0	 62.0	 62.0	 0.0	 0.0	 1	 -30.0	 30.0;
	44	 64	 0.00165	 0.00496	 0.00053	 137.0	 137.0	 137.0	 0.0	 0.0	 1	 -30.0	 30.0;
	46	 62	 0.0235	 0.07683	 0.00783	 123.0	 123.0	 123.0	 0.0	 0.0	 1	 -30.0	 30.0;
	47	 48	 0.00645	 0.02066	 0.00213	 137.0	 137.0	 137.0	 0.0	 0.0	 1	 -30.0	 30.0;
	47	 58	 0.04174	 0.07322	 0.00692	 90.0	 90.0	 90.0	 0.0	 0.0	 1	 -30.0	 30.0;
	47	 59	 0.01132	 0.03636	 0.00375	 137.0	 137.0	 137.0	 0.0	 0.0	 1	 -30.0	 30.0;
	50	 52	 0.04351	 0.09356	 0.00962	 54.76	 71.18	 71.18	 0.0	 0.0	 1	 -30.0	 30.0;
	51	 54	 0.01653	 0.03306	 0.00242	 62.58	 75.1	 93.87	 0.0	 0.0	 1	 -30.0	 30.0;
	52	 53	 8e-05	 0.00083	 0.0	 438.0	 438.0	 438.0	 0.0	 0.0	 1	 -30.0	 30.0;
	52	 57	 0.02394	 0.04718	 0.00469	 58.83	 76.48	 76.48	 0.0	 0.0	 1	 -30.0	 30.0;
	54	 432	 0.0001	 0.01	 0.0	 193.33	 231.99	 289.99	 0.0	 0.0	 1	 -30.0	 30.0;
	59	 63	 0.01721	 0.05623	 0.00573	 140.0	 140.0	 140.0	 0.0	 0.0	 1	 -30.0	 30.0;
	63	 64	 8e-05	 0.00083	 0.0	 438.0	 438.0	 438.0	 0.0	 0.0	 1	 -30.0	 30.0;
	66	 75	 0.00186	 0.02155	 0.05317	 461.0	 461.0	 461.0	 0.0	 0.0	 1	 -30.0	 30.0;
	67	 68	 0.00051	 0.0275	 0.0	 400.0	 400.0	 400.0	 1.07702	 0.0	 1	 -30.0	 30.0;
	67	 82	 0.00568	 0.04215	 0.0716	 317.0	 317.0	 317.0	 0.0	 0.0	 1	 -30.0	 30.0;
	68	 79	 0.00131	 0.01547	 0.41152	 838.0	 838.0	 838.0	 0.0	 0.0	 1	 -30.0	 30.0;
	69	 70	 1e-05	 6e-05	 0.0	 1593.0	 1593.0	 1593.0	 0.0	 0.0	 1	 -30.0	 30.0;
	71	 69	 0.00084	 0.06858	 0.0	 250.0	 250.0	 250.0	 0.9999	 0.0	 1	 -30.0	 30.0;
	69	 130	 0.00033	 0.00388	 0.10475	 831.0	 831.0	 831.0	 0.0	 0.0	 1	 -30.0	 30.0;
	70	 77	 0.0024	 0.02795	 0.75408	 838.0	 838.0	 838.0	 0.0	 0.0	 1	 -30.0	 30.0;
	70	 81	 0.00133	 0.01553	 0.41898	 831.0	 831.0	 831.0	 0.0	 0.0	 1	 -30.0	 30.0;
	88	 71	 0.00044	 -0.00422	 0.0	 250.0	 250.0	 250.0	 1.06772	 0.0	 1	 -30.0	 30.0;
	89	 71	 0.00496	 0.06982	 0.0	 64.99	 84.49	 84.49	 0.98438	 0.0	 1	 -30.0	 30.0;
	72	 73	 2e-05	 0.00021	 0.0	 876.0	 876.0	 876.0	 0.0	 0.0	 1	 -30.0	 30.0;
	72	 75	 0.02738	 0.14254	 0.20047	 222.0	 222.0	 222.0	 0.0	 0.0	 1	 -30.0	 30.0;
	90	 72	 0.00015	 0.06524	 0.0	 160.0	 160.0	 160.0	 1.07325	 0.0	 1	 -30.0	 30.0;
	73	 82	 0.01909	 0.11277	 0.16673	 197.0	 197.0	 197.0	 0.0	 0.0	 1	 -30.0	 30.0;
	91	 73	 0.00027	 0.06715	 0.0	 160.0	 160.0	 160.0	 1.08282	 0.0	 1	 -30.0	 30.0;
	74	 75	 2e-05	 0.00021	 0.0	 876.0	 876.0	 876.0	 0.0	 0.0	 1	 -30.0	 30.0;
	74	 193	 0.0001	 0.01	 0.0	 269.8	 323.76	 404.7	 0.0	 0.0	 1	 -30.0	 30.0;
	76	 75	 0.00076	 0.0789	 0.0	 243.53	 316.58	 316.58	 0.9999	 0.0	 1	 -30.0	 30.0;
	98	 76	 -0.00017	 0.16709	 0.0	 260.0	 312.0	 390.0	 0.94157	 0.0	 1	 -30.0	 30.0;
	78	 79	 1e-05	 6e-05	 0.0	 1593.0	 1593.0	 1593.0	 0.0	 0.0	 1	 -30.0	 30.0;
	78	 80	 0.0015	 0.01768	 0.46944	 831.0	 831.0	 831.0	 0.0	 0.0	 1	 -30.0	 30.0;
	117	 78	 0.00059	 0.04206	 0.0	 330.0	 330.0	 330.0	 1.04877	 0.0	 1	 -30.0	 30.0;
	80	 81	 1e-05	 6e-05	 0.0	 1593.0	 1593.0	 1593.0	 0.0	 0.0	 1	 -30.0	 30.0;
	128	 80	 0.00137	 0.05969	 0.0	 250.0	 250.0	 250.0	 1.05449	 0.0	 1	 -30.0	 30.0;
	129	 80	 0.00137	 0.05969	 0.0	 250.0	 250.0	 250.0	 1.05312	 0.0	 1	 -30.0	 30.0;
	80	 130	 0.001	 0.01165	 0.31426	 831.0	 831.0	 831.0	 0.0	 0.0	 1	 -30.0	 30.0;
	83	 102	 0.021	 0.0679	 0.00696	 101.0	 101.0	 101.0	 0.0	 0.0	 1	 -30.0	 30.0;
	83	 128	 0.02139	 0.06954	 0.00729	 120.0	 120.0	 120.0	 0.0	 0.0	 1	 -30.0	 30.0;
	84	 85	 8e-05	 0.00083	 0.0	 438.0	 438.0	 438.0	 0.0	 0.0	 1	 -30.0	 30.0;
	84	 90	 0.03025	 0.09752	 0.01002	 86.0	 86.0	 86.0	 0.0	 0.0	 1	 -30.0	 30.0;
	84	 93	 0.00983	 0.01736	 0.0016	 137.0	 137.0	 137.0	 0.0	 0.0	 1	 -30.0	 30.0;
	84	 128	 0.03669	 0.11818	 0.01217	 123.0	 123.0	 123.0	 0.0	 0.0	 1	 -30.0	 30.0;
	85	 107	 0.00711	 0.02314	 0.00234	 124.0	 124.0	 124.0	 0.0	 0.0	 1	 -30.0	 30.0;
	85	 113	 0.00331	 0.01074	 0.00109	 137.0	 137.0	 137.0	 0.0	 0.0	 1	 -30.0	 30.0;
	86	 90	 0.01116	 0.01529	 0.00275	 114.0	 114.0	 114.0	 0.0	 0.0	 1	 -30.0	 30.0;
	86	 105	 0.01116	 0.01529	 0.00275	 114.0	 114.0	 114.0	 0.0	 0.0	 1	 -30.0	 30.0;
	87	 102	 0.0405	 0.07107	 0.00673	 88.34	 106.01	 132.51	 0.0	 0.0	 1	 -30.0	 30.0;
	87	 116	 0.04628	 0.07107	 0.0076	 82.01	 98.42	 123.02	 0.0	 0.0	 1	 -30.0	 30.0;
	88	 104	 0.00124	 0.00413	 0.00039	 128.0	 128.0	 128.0	 0.0	 0.0	 1	 -30.0	 30.0;
	88	 108	 0.00793	 0.02231	 0.00215	 176.21	 211.46	 264.32	 0.0	 0.0	 1	 -30.0	 30.0;
	88	 110	 0.00124	 0.00413	 0.00041	 137.0	 137.0	 137.0	 0.0	 0.0	 1	 -30.0	 30.0;
	90	 114	 0.00124	 0.00413	 0.00039	 128.0	 128.0	 128.0	 0.0	 0.0	 1	 -30.0	 30.0;
	90	 126	 0.01977	 0.06457	 0.00658	 123.0	 123.0	 123.0	 0.0	 0.0	 1	 -30.0	 30.0;
	90	 127	 0.00218	 0.00712	 0.00073	 123.0	 123.0	 123.0	 0.0	 0.0	 1	 -30.0	 30.0;
	91	 100	 0.0065	 0.02121	 0.00216	 123.0	 123.0	 123.0	 0.0	 0.0	 1	 -30.0	 30.0;
...